# LPF package for  MODFLOW-2005, generated by Flopy.
         0    -1E+30         0  
         0
         0
   1.000000E+00
         0
         0
INTERNAL               1 (150E15.6) -1 #hk layer 1                    
   7.000000E+00   7.000000E+00   7.000000E+00   7.000000E+00   7.000000E+00   7.000000E+00   7.000000E+00   7.000000E+00   7.000000E+00   7.000000E+00   7.000000E+00   7.000000E+00   7.000000E+00   7.000000E+00   7.000000E+00   7.000000E+00   7.000000E+00   7.000000E+00   7.000000E+00   7.000000E+00   7.000000E+00   7.000000E+00   7.000000E+00   7.000000E+00   7.000000E+00   7.000000E+00   7.000000E+00   7.000000E+00   7.000000E+00   7.000000E+00   7.000000E+00   7.000000E+00   7.000000E+00   7.000000E+00   7.000000E+00   7.000000E+00   7.000000E+00   7.000000E+00   7.000000E+00   7.000000E+00   7.000000E+00   7.000000E+00   7.000000E+00   7.000000E+00   7.000000E+00   7.000000E+00   7.000000E+00   7.000000E+00   7.000000E+00   7.000000E+00   7.000000E+00   7.000000E+00   7.000000E+00   7.000000E+00   7.000000E+00   7.000000E+00   7.000000E+00   7.000000E+00   7.000000E+00   7.000000E+00   7.000000E+00   7.000000E+00   7.000000E+00   7.000000E+00   7.000000E+00   7.000000E+00   7.000000E+00   7.000000E+00   7.000000E+00   7.000000E+00   7.000000E+00   7.000000E+00   7.000000E+00   7.000000E+00   7.000000E+00   7.000000E+00   7.000000E+00   7.000000E+00   7.000000E+00   7.000000E+00   7.000000E+00   7.000000E+00   7.000000E+00   7.000000E+00   7.000000E+00   7.000000E+00   7.000000E+00   7.000000E+00   7.000000E+00   7.000000E+00   7.000000E+00   7.000000E+00   7.000000E+00   7.000000E+00   7.000000E+00   7.000000E+00   7.000000E+00   7.000000E+00   7.000000E+00   7.000000E+00   7.000000E+00   7.000000E+00   7.000000E+00   7.000000E+00   3.000000E-01   7.000000E+00   7.000000E+00   7.000000E+00   7.000000E+00   7.000000E+00   7.000000E+00   7.000000E+00   7.000000E+00   7.000000E+00   7.000000E+00   7.000000E+00   7.000000E+00   7.000000E+00   7.000000E+00   7.000000E+00   7.000000E+00   7.000000E+00   7.000000E+00   7.000000E+00   7.000000E+00   7.000000E+00   7.000000E+00   7.000000E+00   7.000000E+00   7.000000E+00   7.000000E+00   7.000000E+00   7.000000E+00   7.000000E+00   7.000000E+00   7.000000E+00   7.000000E+00   7.000000E+00   7.000000E+00   7.000000E+00   7.000000E+00   7.000000E+00   7.000000E+00   7.000000E+00   7.000000E+00   7.000000E+00   7.000000E+00   7.000000E+00   7.000000E+00   7.000000E+00
   7.000000E+00   7.000000E+00   7.000000E+00   7.000000E+00   7.000000E+00   7.000000E+00   7.000000E+00   7.000000E+00   7.000000E+00   7.000000E+00   7.000000E+00   7.000000E+00   7.000000E+00   7.000000E+00   7.000000E+00   7.000000E+00   7.000000E+00   7.000000E+00   7.000000E+00   7.000000E+00   7.000000E+00   7.000000E+00   7.000000E+00   7.000000E+00   7.000000E+00   7.000000E+00   7.000000E+00   7.000000E+00   7.000000E+00   7.000000E+00   7.000000E+00   7.000000E+00   7.000000E+00   7.000000E+00   7.000000E+00   7.000000E+00   7.000000E+00   7.000000E+00   7.000000E+00   7.000000E+00   7.000000E+00   7.000000E+00   7.000000E+00   7.000000E+00   7.000000E+00   7.000000E+00   7.000000E+00   7.000000E+00   7.000000E+00   7.000000E+00   7.000000E+00   7.000000E+00   7.000000E+00   7.000000E+00   7.000000E+00   7.000000E+00   7.000000E+00   7.000000E+00   7.000000E+00   7.000000E+00   7.000000E+00   7.000000E+00   7.000000E+00   7.000000E+00   7.000000E+00   7.000000E+00   7.000000E+00   7.000000E+00   7.000000E+00   7.000000E+00   7.000000E+00   7.000000E+00   7.000000E+00   7.000000E+00   7.000000E+00   7.000000E+00   7.000000E+00   7.000000E+00   7.000000E+00   7.000000E+00   7.000000E+00   7.000000E+00   7.000000E+00   7.000000E+00   7.000000E+00   7.000000E+00   7.000000E+00   7.000000E+00   7.000000E+00   7.000000E+00   7.000000E+00   7.000000E+00   7.000000E+00   7.000000E+00   7.000000E+00   7.000000E+00   7.000000E+00   7.000000E+00   7.000000E+00   7.000000E+00   7.000000E+00   7.000000E+00   3.000000E-01   3.000000E-01   3.000000E-01   7.000000E+00   7.000000E+00   7.000000E+00   7.000000E+00   7.000000E+00   7.000000E+00   7.000000E+00   7.000000E+00   7.000000E+00   7.000000E+00   7.000000E+00   7.000000E+00   7.000000E+00   7.000000E+00   7.000000E+00   7.000000E+00   7.000000E+00   7.000000E+00   7.000000E+00   7.000000E+00   7.000000E+00   7.000000E+00   7.000000E+00   7.000000E+00   7.000000E+00   7.000000E+00   7.000000E+00   7.000000E+00   7.000000E+00   7.000000E+00   7.000000E+00   7.000000E+00   7.000000E+00   7.000000E+00   7.000000E+00   7.000000E+00   7.000000E+00   7.000000E+00   7.000000E+00   7.000000E+00   7.000000E+00   7.000000E+00   7.000000E+00   7.000000E+00   7.000000E+00
   7.000000E+00   7.000000E+00   7.000000E+00   7.000000E+00   7.000000E+00   7.000000E+00   7.000000E+00   7.000000E+00   7.000000E+00   7.000000E+00   7.000000E+00   7.000000E+00   7.000000E+00   7.000000E+00   7.000000E+00   7.000000E+00   7.000000E+00   7.000000E+00   7.000000E+00   7.000000E+00   7.000000E+00   7.000000E+00   7.000000E+00   7.000000E+00   7.000000E+00   7.000000E+00   7.000000E+00   7.000000E+00   7.000000E+00   7.000000E+00   7.000000E+00   7.000000E+00   7.000000E+00   7.000000E+00   7.000000E+00   7.000000E+00   7.000000E+00   7.000000E+00   7.000000E+00   7.000000E+00   7.000000E+00   7.000000E+00   7.000000E+00   7.000000E+00   7.000000E+00   7.000000E+00   7.000000E+00   7.000000E+00   7.000000E+00   7.000000E+00   7.000000E+00   7.000000E+00   7.000000E+00   7.000000E+00   7.000000E+00   7.000000E+00   7.000000E+00   7.000000E+00   7.000000E+00   7.000000E+00   7.000000E+00   7.000000E+00   7.000000E+00   7.000000E+00   7.000000E+00   7.000000E+00   7.000000E+00   7.000000E+00   7.000000E+00   7.000000E+00   7.000000E+00   7.000000E+00   7.000000E+00   7.000000E+00   7.000000E+00   7.000000E+00   7.000000E+00   7.000000E+00   7.000000E+00   7.000000E+00   7.000000E+00   7.000000E+00   7.000000E+00   7.000000E+00   7.000000E+00   7.000000E+00   7.000000E+00   7.000000E+00   7.000000E+00   7.000000E+00   7.000000E+00   7.000000E+00   7.000000E+00   7.000000E+00   7.000000E+00   7.000000E+00   7.000000E+00   7.000000E+00   7.000000E+00   7.000000E+00   7.000000E+00   3.000000E-01   3.000000E-01   3.000000E-01   3.000000E-01   7.000000E+00   7.000000E+00   7.000000E+00   7.000000E+00   7.000000E+00   7.000000E+00   7.000000E+00   7.000000E+00   7.000000E+00   7.000000E+00   7.000000E+00   7.000000E+00   7.000000E+00   7.000000E+00   7.000000E+00   7.000000E+00   7.000000E+00   7.000000E+00   7.000000E+00   7.000000E+00   7.000000E+00   7.000000E+00   7.000000E+00   7.000000E+00   7.000000E+00   7.000000E+00   7.000000E+00   7.000000E+00   7.000000E+00   7.000000E+00   7.000000E+00   7.000000E+00   7.000000E+00   7.000000E+00   7.000000E+00   7.000000E+00   7.000000E+00   7.000000E+00   7.000000E+00   7.000000E+00   7.000000E+00   7.000000E+00   7.000000E+00   7.000000E+00   7.000000E+00
   7.000000E+00   7.000000E+00   7.000000E+00   7.000000E+00   7.000000E+00   7.000000E+00   7.000000E+00   7.000000E+00   7.000000E+00   7.000000E+00   7.000000E+00   7.000000E+00   7.000000E+00   7.000000E+00   7.000000E+00   7.000000E+00   7.000000E+00   7.000000E+00   7.000000E+00   7.000000E+00   7.000000E+00   7.000000E+00   7.000000E+00   7.000000E+00   7.000000E+00   7.000000E+00   7.000000E+00   7.000000E+00   7.000000E+00   7.000000E+00   7.000000E+00   7.000000E+00   7.000000E+00   7.000000E+00   7.000000E+00   7.000000E+00   7.000000E+00   7.000000E+00   7.000000E+00   7.000000E+00   7.000000E+00   7.000000E+00   7.000000E+00   7.000000E+00   7.000000E+00   7.000000E+00   7.000000E+00   7.000000E+00   7.000000E+00   7.000000E+00   7.000000E+00   7.000000E+00   7.000000E+00   7.000000E+00   7.000000E+00   7.000000E+00   7.000000E+00   7.000000E+00   7.000000E+00   7.000000E+00   7.000000E+00   7.000000E+00   7.000000E+00   7.000000E+00   7.000000E+00   7.000000E+00   7.000000E+00   7.000000E+00   7.000000E+00   7.000000E+00   7.000000E+00   7.000000E+00   7.000000E+00   7.000000E+00   7.000000E+00   7.000000E+00   7.000000E+00   7.000000E+00   7.000000E+00   7.000000E+00   7.000000E+00   7.000000E+00   7.000000E+00   7.000000E+00   7.000000E+00   7.000000E+00   7.000000E+00   7.000000E+00   7.000000E+00   7.000000E+00   7.000000E+00   7.000000E+00   7.000000E+00   7.000000E+00   7.000000E+00   7.000000E+00   7.000000E+00   7.000000E+00   7.000000E+00   3.000000E-01   3.000000E-01   3.000000E-01   3.000000E-01   3.000000E-01   3.000000E-01   7.000000E+00   7.000000E+00   7.000000E+00   7.000000E+00   7.000000E+00   7.000000E+00   7.000000E+00   7.000000E+00   7.000000E+00   7.000000E+00   7.000000E+00   7.000000E+00   7.000000E+00   7.000000E+00   7.000000E+00   7.000000E+00   7.000000E+00   7.000000E+00   7.000000E+00   7.000000E+00   7.000000E+00   7.000000E+00   7.000000E+00   7.000000E+00   7.000000E+00   7.000000E+00   7.000000E+00   7.000000E+00   7.000000E+00   7.000000E+00   7.000000E+00   7.000000E+00   7.000000E+00   7.000000E+00   7.000000E+00   7.000000E+00   7.000000E+00   7.000000E+00   7.000000E+00   7.000000E+00   7.000000E+00   7.000000E+00   7.000000E+00   7.000000E+00   7.000000E+00
   7.000000E+00   7.000000E+00   7.000000E+00   7.000000E+00   7.000000E+00   7.000000E+00   7.000000E+00   7.000000E+00   7.000000E+00   7.000000E+00   7.000000E+00   7.000000E+00   7.000000E+00   7.000000E+00   7.000000E+00   7.000000E+00   7.000000E+00   7.000000E+00   7.000000E+00   7.000000E+00   7.000000E+00   7.000000E+00   7.000000E+00   7.000000E+00   7.000000E+00   7.000000E+00   7.000000E+00   7.000000E+00   7.000000E+00   7.000000E+00   7.000000E+00   7.000000E+00   7.000000E+00   7.000000E+00   7.000000E+00   7.000000E+00   7.000000E+00   7.000000E+00   7.000000E+00   7.000000E+00   7.000000E+00   7.000000E+00   7.000000E+00   7.000000E+00   7.000000E+00   7.000000E+00   7.000000E+00   7.000000E+00   7.000000E+00   7.000000E+00   7.000000E+00   7.000000E+00   7.000000E+00   7.000000E+00   7.000000E+00   7.000000E+00   7.000000E+00   7.000000E+00   7.000000E+00   7.000000E+00   7.000000E+00   7.000000E+00   7.000000E+00   7.000000E+00   7.000000E+00   7.000000E+00   7.000000E+00   7.000000E+00   7.000000E+00   7.000000E+00   7.000000E+00   7.000000E+00   7.000000E+00   7.000000E+00   7.000000E+00   7.000000E+00   7.000000E+00   7.000000E+00   7.000000E+00   7.000000E+00   7.000000E+00   7.000000E+00   7.000000E+00   7.000000E+00   7.000000E+00   7.000000E+00   7.000000E+00   7.000000E+00   7.000000E+00   7.000000E+00   7.000000E+00   7.000000E+00   7.000000E+00   7.000000E+00   7.000000E+00   7.000000E+00   7.000000E+00   7.000000E+00   3.000000E-01   3.000000E-01   3.000000E-01   3.000000E-01   3.000000E-01   3.000000E-01   3.000000E-01   3.000000E-01   7.000000E+00   7.000000E+00   7.000000E+00   7.000000E+00   7.000000E+00   7.000000E+00   7.000000E+00   7.000000E+00   7.000000E+00   7.000000E+00   7.000000E+00   7.000000E+00   7.000000E+00   7.000000E+00   7.000000E+00   7.000000E+00   7.000000E+00   7.000000E+00   7.000000E+00   7.000000E+00   7.000000E+00   7.000000E+00   7.000000E+00   7.000000E+00   7.000000E+00   7.000000E+00   7.000000E+00   7.000000E+00   7.000000E+00   7.000000E+00   7.000000E+00   7.000000E+00   7.000000E+00   7.000000E+00   7.000000E+00   7.000000E+00   7.000000E+00   7.000000E+00   7.000000E+00   7.000000E+00   7.000000E+00   7.000000E+00   7.000000E+00   7.000000E+00
   7.000000E+00   7.000000E+00   7.000000E+00   7.000000E+00   7.000000E+00   7.000000E+00   7.000000E+00   7.000000E+00   7.000000E+00   7.000000E+00   7.000000E+00   7.000000E+00   7.000000E+00   7.000000E+00   7.000000E+00   7.000000E+00   7.000000E+00   7.000000E+00   7.000000E+00   7.000000E+00   7.000000E+00   7.000000E+00   7.000000E+00   7.000000E+00   7.000000E+00   7.000000E+00   7.000000E+00   7.000000E+00   7.000000E+00   7.000000E+00   7.000000E+00   7.000000E+00   7.000000E+00   7.000000E+00   7.000000E+00   7.000000E+00   7.000000E+00   7.000000E+00   7.000000E+00   7.000000E+00   7.000000E+00   7.000000E+00   7.000000E+00   7.000000E+00   7.000000E+00   7.000000E+00   7.000000E+00   7.000000E+00   7.000000E+00   7.000000E+00   7.000000E+00   7.000000E+00   7.000000E+00   7.000000E+00   7.000000E+00   7.000000E+00   7.000000E+00   7.000000E+00   7.000000E+00   7.000000E+00   7.000000E+00   7.000000E+00   7.000000E+00   7.000000E+00   7.000000E+00   7.000000E+00   7.000000E+00   7.000000E+00   7.000000E+00   7.000000E+00   7.000000E+00   7.000000E+00   7.000000E+00   7.000000E+00   7.000000E+00   7.000000E+00   7.000000E+00   7.000000E+00   7.000000E+00   7.000000E+00   7.000000E+00   7.000000E+00   7.000000E+00   7.000000E+00   7.000000E+00   7.000000E+00   7.000000E+00   7.000000E+00   7.000000E+00   7.000000E+00   7.000000E+00   7.000000E+00   7.000000E+00   7.000000E+00   7.000000E+00   7.000000E+00   7.000000E+00   3.000000E-01   3.000000E-01   3.000000E-01   3.000000E-01   3.000000E-01   3.000000E-01   3.000000E-01   3.000000E-01   1.200000E+00   7.000000E+00   7.000000E+00   7.000000E+00   7.000000E+00   7.000000E+00   7.000000E+00   7.000000E+00   7.000000E+00   7.000000E+00   7.000000E+00   7.000000E+00   7.000000E+00   7.000000E+00   7.000000E+00   7.000000E+00   7.000000E+00   7.000000E+00   7.000000E+00   7.000000E+00   7.000000E+00   7.000000E+00   7.000000E+00   7.000000E+00   7.000000E+00   7.000000E+00   7.000000E+00   7.000000E+00   7.000000E+00   7.000000E+00   7.000000E+00   7.000000E+00   7.000000E+00   7.000000E+00   7.000000E+00   7.000000E+00   7.000000E+00   7.000000E+00   7.000000E+00   7.000000E+00   7.000000E+00   7.000000E+00   7.000000E+00   7.000000E+00   7.000000E+00
   7.000000E+00   7.000000E+00   7.000000E+00   7.000000E+00   7.000000E+00   7.000000E+00   7.000000E+00   7.000000E+00   7.000000E+00   7.000000E+00   7.000000E+00   7.000000E+00   7.000000E+00   7.000000E+00   7.000000E+00   7.000000E+00   7.000000E+00   7.000000E+00   7.000000E+00   7.000000E+00   7.000000E+00   7.000000E+00   7.000000E+00   7.000000E+00   7.000000E+00   7.000000E+00   7.000000E+00   7.000000E+00   7.000000E+00   7.000000E+00   7.000000E+00   7.000000E+00   7.000000E+00   7.000000E+00   7.000000E+00   7.000000E+00   7.000000E+00   7.000000E+00   7.000000E+00   7.000000E+00   7.000000E+00   7.000000E+00   7.000000E+00   7.000000E+00   7.000000E+00   7.000000E+00   7.000000E+00   7.000000E+00   7.000000E+00   7.000000E+00   7.000000E+00   7.000000E+00   7.000000E+00   7.000000E+00   7.000000E+00   7.000000E+00   7.000000E+00   7.000000E+00   7.000000E+00   7.000000E+00   7.000000E+00   7.000000E+00   7.000000E+00   7.000000E+00   7.000000E+00   7.000000E+00   7.000000E+00   7.000000E+00   7.000000E+00   7.000000E+00   7.000000E+00   7.000000E+00   7.000000E+00   7.000000E+00   7.000000E+00   7.000000E+00   7.000000E+00   7.000000E+00   7.000000E+00   7.000000E+00   7.000000E+00   7.000000E+00   7.000000E+00   7.000000E+00   7.000000E+00   7.000000E+00   7.000000E+00   7.000000E+00   7.000000E+00   7.000000E+00   7.000000E+00   7.000000E+00   7.000000E+00   7.000000E+00   7.000000E+00   3.000000E-01   3.000000E-01   3.000000E-01   3.000000E-01   3.000000E-01   3.000000E-01   3.000000E-01   3.000000E-01   3.000000E-01   1.200000E+00   1.200000E+00   7.000000E+00   7.000000E+00   7.000000E+00   7.000000E+00   7.000000E+00   7.000000E+00   7.000000E+00   7.000000E+00   7.000000E+00   7.000000E+00   7.000000E+00   7.000000E+00   7.000000E+00   7.000000E+00   7.000000E+00   7.000000E+00   7.000000E+00   7.000000E+00   7.000000E+00   7.000000E+00   7.000000E+00   7.000000E+00   7.000000E+00   7.000000E+00   7.000000E+00   7.000000E+00   7.000000E+00   7.000000E+00   7.000000E+00   7.000000E+00   7.000000E+00   7.000000E+00   7.000000E+00   7.000000E+00   7.000000E+00   7.000000E+00   7.000000E+00   7.000000E+00   7.000000E+00   7.000000E+00   7.000000E+00   7.000000E+00   7.000000E+00   7.000000E+00
   7.000000E+00   7.000000E+00   7.000000E+00   7.000000E+00   7.000000E+00   7.000000E+00   7.000000E+00   7.000000E+00   7.000000E+00   7.000000E+00   7.000000E+00   7.000000E+00   7.000000E+00   7.000000E+00   7.000000E+00   7.000000E+00   7.000000E+00   7.000000E+00   7.000000E+00   7.000000E+00   7.000000E+00   7.000000E+00   7.000000E+00   7.000000E+00   7.000000E+00   7.000000E+00   7.000000E+00   7.000000E+00   7.000000E+00   7.000000E+00   7.000000E+00   7.000000E+00   7.000000E+00   7.000000E+00   7.000000E+00   7.000000E+00   7.000000E+00   7.000000E+00   7.000000E+00   7.000000E+00   7.000000E+00   7.000000E+00   7.000000E+00   7.000000E+00   7.000000E+00   7.000000E+00   7.000000E+00   7.000000E+00   7.000000E+00   7.000000E+00   7.000000E+00   7.000000E+00   7.000000E+00   7.000000E+00   7.000000E+00   7.000000E+00   7.000000E+00   7.000000E+00   7.000000E+00   7.000000E+00   7.000000E+00   7.000000E+00   7.000000E+00   7.000000E+00   7.000000E+00   7.000000E+00   7.000000E+00   7.000000E+00   7.000000E+00   7.000000E+00   7.000000E+00   7.000000E+00   7.000000E+00   7.000000E+00   7.000000E+00   7.000000E+00   7.000000E+00   7.000000E+00   7.000000E+00   7.000000E+00   7.000000E+00   7.000000E+00   7.000000E+00   7.000000E+00   7.000000E+00   7.000000E+00   7.000000E+00   7.000000E+00   7.000000E+00   7.000000E+00   7.000000E+00   7.000000E+00   7.000000E+00   7.000000E+00   3.000000E-01   3.000000E-01   3.000000E-01   3.000000E-01   3.000000E-01   3.000000E-01   3.000000E-01   3.000000E-01   3.000000E-01   3.000000E-01   1.200000E+00   7.000000E+00   7.000000E+00   7.000000E+00   7.000000E+00   7.000000E+00   7.000000E+00   7.000000E+00   7.000000E+00   7.000000E+00   7.000000E+00   7.000000E+00   7.000000E+00   7.000000E+00   7.000000E+00   7.000000E+00   7.000000E+00   7.000000E+00   7.000000E+00   7.000000E+00   7.000000E+00   7.000000E+00   7.000000E+00   7.000000E+00   7.000000E+00   7.000000E+00   7.000000E+00   7.000000E+00   7.000000E+00   7.000000E+00   7.000000E+00   7.000000E+00   7.000000E+00   7.000000E+00   7.000000E+00   7.000000E+00   7.000000E+00   7.000000E+00   7.000000E+00   7.000000E+00   7.000000E+00   7.000000E+00   7.000000E+00   7.000000E+00   7.000000E+00   7.000000E+00
   7.000000E+00   7.000000E+00   7.000000E+00   7.000000E+00   7.000000E+00   7.000000E+00   7.000000E+00   7.000000E+00   7.000000E+00   7.000000E+00   7.000000E+00   7.000000E+00   7.000000E+00   7.000000E+00   7.000000E+00   7.000000E+00   7.000000E+00   7.000000E+00   7.000000E+00   7.000000E+00   7.000000E+00   7.000000E+00   7.000000E+00   7.000000E+00   7.000000E+00   7.000000E+00   7.000000E+00   7.000000E+00   7.000000E+00   7.000000E+00   7.000000E+00   7.000000E+00   7.000000E+00   7.000000E+00   7.000000E+00   7.000000E+00   7.000000E+00   7.000000E+00   7.000000E+00   7.000000E+00   7.000000E+00   7.000000E+00   7.000000E+00   7.000000E+00   7.000000E+00   7.000000E+00   7.000000E+00   7.000000E+00   7.000000E+00   7.000000E+00   7.000000E+00   7.000000E+00   7.000000E+00   7.000000E+00   7.000000E+00   7.000000E+00   7.000000E+00   7.000000E+00   7.000000E+00   7.000000E+00   7.000000E+00   7.000000E+00   7.000000E+00   7.000000E+00   7.000000E+00   7.000000E+00   7.000000E+00   7.000000E+00   7.000000E+00   7.000000E+00   7.000000E+00   7.000000E+00   7.000000E+00   7.000000E+00   7.000000E+00   7.000000E+00   7.000000E+00   7.000000E+00   7.000000E+00   7.000000E+00   7.000000E+00   7.000000E+00   7.000000E+00   7.000000E+00   7.000000E+00   7.000000E+00   7.000000E+00   7.000000E+00   7.000000E+00   7.000000E+00   7.000000E+00   7.000000E+00   7.000000E+00   3.000000E-01   3.000000E-01   3.000000E-01   3.000000E-01   3.000000E-01   3.000000E-01   3.000000E-01   3.000000E-01   3.000000E-01   3.000000E-01   1.200000E+00   1.200000E+00   7.000000E+00   7.000000E+00   7.000000E+00   7.000000E+00   7.000000E+00   7.000000E+00   7.000000E+00   7.000000E+00   7.000000E+00   7.000000E+00   7.000000E+00   7.000000E+00   7.000000E+00   7.000000E+00   7.000000E+00   7.000000E+00   7.000000E+00   7.000000E+00   7.000000E+00   7.000000E+00   7.000000E+00   7.000000E+00   7.000000E+00   7.000000E+00   7.000000E+00   7.000000E+00   7.000000E+00   7.000000E+00   7.000000E+00   7.000000E+00   7.000000E+00   7.000000E+00   7.000000E+00   7.000000E+00   7.000000E+00   7.000000E+00   7.000000E+00   7.000000E+00   7.000000E+00   7.000000E+00   7.000000E+00   7.000000E+00   7.000000E+00   7.000000E+00   7.000000E+00
   7.000000E+00   7.000000E+00   7.000000E+00   7.000000E+00   7.000000E+00   7.000000E+00   7.000000E+00   7.000000E+00   7.000000E+00   7.000000E+00   7.000000E+00   7.000000E+00   7.000000E+00   7.000000E+00   7.000000E+00   7.000000E+00   7.000000E+00   7.000000E+00   7.000000E+00   7.000000E+00   7.000000E+00   7.000000E+00   7.000000E+00   7.000000E+00   7.000000E+00   7.000000E+00   7.000000E+00   7.000000E+00   7.000000E+00   7.000000E+00   7.000000E+00   7.000000E+00   7.000000E+00   7.000000E+00   7.000000E+00   7.000000E+00   7.000000E+00   7.000000E+00   7.000000E+00   7.000000E+00   7.000000E+00   7.000000E+00   7.000000E+00   7.000000E+00   7.000000E+00   7.000000E+00   7.000000E+00   7.000000E+00   7.000000E+00   7.000000E+00   7.000000E+00   7.000000E+00   7.000000E+00   7.000000E+00   7.000000E+00   7.000000E+00   7.000000E+00   7.000000E+00   7.000000E+00   7.000000E+00   7.000000E+00   7.000000E+00   7.000000E+00   7.000000E+00   7.000000E+00   7.000000E+00   7.000000E+00   7.000000E+00   7.000000E+00   7.000000E+00   7.000000E+00   7.000000E+00   7.000000E+00   7.000000E+00   7.000000E+00   7.000000E+00   7.000000E+00   7.000000E+00   7.000000E+00   7.000000E+00   7.000000E+00   7.000000E+00   7.000000E+00   7.000000E+00   7.000000E+00   7.000000E+00   7.000000E+00   7.000000E+00   7.000000E+00   7.000000E+00   7.000000E+00   7.000000E+00   3.000000E-01   3.000000E-01   3.000000E-01   3.000000E-01   3.000000E-01   3.000000E-01   3.000000E-01   3.000000E-01   3.000000E-01   3.000000E-01   3.000000E-01   1.200000E+00   1.200000E+00   7.000000E+00   7.000000E+00   7.000000E+00   7.000000E+00   7.000000E+00   7.000000E+00   7.000000E+00   7.000000E+00   7.000000E+00   7.000000E+00   7.000000E+00   7.000000E+00   7.000000E+00   7.000000E+00   7.000000E+00   7.000000E+00   7.000000E+00   7.000000E+00   7.000000E+00   7.000000E+00   7.000000E+00   7.000000E+00   7.000000E+00   7.000000E+00   7.000000E+00   7.000000E+00   7.000000E+00   7.000000E+00   7.000000E+00   7.000000E+00   7.000000E+00   7.000000E+00   7.000000E+00   7.000000E+00   7.000000E+00   7.000000E+00   7.000000E+00   7.000000E+00   7.000000E+00   7.000000E+00   7.000000E+00   7.000000E+00   7.000000E+00   7.000000E+00   7.000000E+00
   7.000000E+00   7.000000E+00   7.000000E+00   7.000000E+00   7.000000E+00   7.000000E+00   7.000000E+00   7.000000E+00   7.000000E+00   7.000000E+00   7.000000E+00   7.000000E+00   7.000000E+00   7.000000E+00   7.000000E+00   7.000000E+00   7.000000E+00   7.000000E+00   7.000000E+00   7.000000E+00   7.000000E+00   7.000000E+00   7.000000E+00   7.000000E+00   7.000000E+00   7.000000E+00   7.000000E+00   7.000000E+00   7.000000E+00   7.000000E+00   7.000000E+00   7.000000E+00   7.000000E+00   7.000000E+00   7.000000E+00   7.000000E+00   7.000000E+00   7.000000E+00   7.000000E+00   7.000000E+00   7.000000E+00   7.000000E+00   7.000000E+00   7.000000E+00   7.000000E+00   7.000000E+00   7.000000E+00   7.000000E+00   7.000000E+00   7.000000E+00   7.000000E+00   7.000000E+00   7.000000E+00   7.000000E+00   7.000000E+00   7.000000E+00   7.000000E+00   7.000000E+00   7.000000E+00   7.000000E+00   7.000000E+00   7.000000E+00   7.000000E+00   7.000000E+00   7.000000E+00   7.000000E+00   7.000000E+00   7.000000E+00   7.000000E+00   7.000000E+00   7.000000E+00   7.000000E+00   7.000000E+00   7.000000E+00   7.000000E+00   7.000000E+00   7.000000E+00   7.000000E+00   7.000000E+00   7.000000E+00   7.000000E+00   7.000000E+00   7.000000E+00   7.000000E+00   7.000000E+00   7.000000E+00   7.000000E+00   7.000000E+00   7.000000E+00   7.000000E+00   7.000000E+00   3.000000E-01   3.000000E-01   3.000000E-01   3.000000E-01   3.000000E-01   3.000000E-01   3.000000E-01   3.000000E-01   3.000000E-01   3.000000E-01   3.000000E-01   3.000000E-01   1.200000E+00   7.000000E+00   7.000000E+00   7.000000E+00   7.000000E+00   7.000000E+00   7.000000E+00   7.000000E+00   7.000000E+00   7.000000E+00   7.000000E+00   7.000000E+00   7.000000E+00   7.000000E+00   7.000000E+00   7.000000E+00   7.000000E+00   7.000000E+00   7.000000E+00   7.000000E+00   7.000000E+00   7.000000E+00   7.000000E+00   7.000000E+00   7.000000E+00   7.000000E+00   7.000000E+00   7.000000E+00   7.000000E+00   7.000000E+00   7.000000E+00   7.000000E+00   7.000000E+00   7.000000E+00   7.000000E+00   7.000000E+00   7.000000E+00   7.000000E+00   7.000000E+00   7.000000E+00   7.000000E+00   7.000000E+00   7.000000E+00   7.000000E+00   7.000000E+00   7.000000E+00   7.000000E+00
   7.000000E+00   7.000000E+00   7.000000E+00   7.000000E+00   7.000000E+00   7.000000E+00   7.000000E+00   7.000000E+00   7.000000E+00   7.000000E+00   7.000000E+00   7.000000E+00   7.000000E+00   7.000000E+00   7.000000E+00   7.000000E+00   7.000000E+00   7.000000E+00   7.000000E+00   7.000000E+00   7.000000E+00   7.000000E+00   7.000000E+00   7.000000E+00   7.000000E+00   7.000000E+00   7.000000E+00   7.000000E+00   7.000000E+00   7.000000E+00   7.000000E+00   7.000000E+00   7.000000E+00   7.000000E+00   7.000000E+00   7.000000E+00   7.000000E+00   7.000000E+00   7.000000E+00   7.000000E+00   7.000000E+00   7.000000E+00   7.000000E+00   7.000000E+00   7.000000E+00   7.000000E+00   7.000000E+00   7.000000E+00   7.000000E+00   7.000000E+00   7.000000E+00   7.000000E+00   7.000000E+00   7.000000E+00   7.000000E+00   7.000000E+00   7.000000E+00   7.000000E+00   7.000000E+00   7.000000E+00   7.000000E+00   7.000000E+00   7.000000E+00   7.000000E+00   7.000000E+00   7.000000E+00   7.000000E+00   7.000000E+00   7.000000E+00   7.000000E+00   7.000000E+00   7.000000E+00   7.000000E+00   7.000000E+00   7.000000E+00   7.000000E+00   7.000000E+00   7.000000E+00   7.000000E+00   7.000000E+00   7.000000E+00   7.000000E+00   7.000000E+00   7.000000E+00   7.000000E+00   7.000000E+00   7.000000E+00   7.000000E+00   7.000000E+00   7.000000E+00   3.000000E-01   3.000000E-01   3.000000E-01   3.000000E-01   3.000000E-01   3.000000E-01   3.000000E-01   3.000000E-01   3.000000E-01   3.000000E-01   3.000000E-01   3.000000E-01   1.200000E+00   1.200000E+00   7.000000E+00   7.000000E+00   7.000000E+00   7.000000E+00   7.000000E+00   7.000000E+00   7.000000E+00   7.000000E+00   7.000000E+00   7.000000E+00   7.000000E+00   7.000000E+00   7.000000E+00   7.000000E+00   7.000000E+00   7.000000E+00   7.000000E+00   7.000000E+00   7.000000E+00   7.000000E+00   7.000000E+00   7.000000E+00   7.000000E+00   7.000000E+00   7.000000E+00   7.000000E+00   7.000000E+00   7.000000E+00   7.000000E+00   7.000000E+00   7.000000E+00   7.000000E+00   7.000000E+00   7.000000E+00   7.000000E+00   7.000000E+00   7.000000E+00   7.000000E+00   7.000000E+00   7.000000E+00   7.000000E+00   7.000000E+00   7.000000E+00   7.000000E+00   7.000000E+00   7.000000E+00
   7.000000E+00   7.000000E+00   7.000000E+00   7.000000E+00   7.000000E+00   7.000000E+00   7.000000E+00   7.000000E+00   7.000000E+00   7.000000E+00   7.000000E+00   7.000000E+00   7.000000E+00   7.000000E+00   7.000000E+00   7.000000E+00   7.000000E+00   7.000000E+00   7.000000E+00   7.000000E+00   7.000000E+00   7.000000E+00   7.000000E+00   7.000000E+00   7.000000E+00   7.000000E+00   7.000000E+00   7.000000E+00   7.000000E+00   7.000000E+00   7.000000E+00   7.000000E+00   7.000000E+00   7.000000E+00   7.000000E+00   7.000000E+00   7.000000E+00   7.000000E+00   7.000000E+00   7.000000E+00   7.000000E+00   7.000000E+00   7.000000E+00   7.000000E+00   7.000000E+00   7.000000E+00   7.000000E+00   7.000000E+00   7.000000E+00   7.000000E+00   7.000000E+00   7.000000E+00   7.000000E+00   7.000000E+00   7.000000E+00   7.000000E+00   7.000000E+00   7.000000E+00   7.000000E+00   7.000000E+00   7.000000E+00   7.000000E+00   7.000000E+00   7.000000E+00   7.000000E+00   7.000000E+00   7.000000E+00   7.000000E+00   7.000000E+00   7.000000E+00   7.000000E+00   7.000000E+00   7.000000E+00   7.000000E+00   7.000000E+00   7.000000E+00   7.000000E+00   7.000000E+00   7.000000E+00   7.000000E+00   7.000000E-01   7.000000E+00   7.000000E+00   7.000000E+00   7.000000E+00   7.000000E+00   7.000000E+00   7.000000E+00   7.000000E+00   3.000000E-01   3.000000E-01   3.000000E-01   3.000000E-01   3.000000E-01   3.000000E-01   3.000000E-01   3.000000E-01   3.000000E-01   3.000000E-01   3.000000E-01   3.000000E-01   1.200000E+00   1.200000E+00   7.000000E+00   7.000000E+00   7.000000E+00   7.000000E+00   7.000000E+00   7.000000E+00   7.000000E+00   7.000000E+00   7.000000E+00   7.000000E+00   7.000000E+00   7.000000E+00   7.000000E+00   7.000000E+00   7.000000E+00   7.000000E+00   7.000000E+00   7.000000E+00   7.000000E+00   7.000000E+00   7.000000E+00   7.000000E+00   7.000000E+00   7.000000E+00   7.000000E+00   7.000000E+00   7.000000E+00   7.000000E+00   7.000000E+00   7.000000E+00   7.000000E+00   7.000000E+00   7.000000E+00   7.000000E+00   7.000000E+00   7.000000E+00   7.000000E+00   7.000000E+00   7.000000E+00   7.000000E+00   7.000000E+00   7.000000E+00   7.000000E+00   7.000000E+00   7.000000E+00   7.000000E+00   7.000000E+00