# RCH package for  MODFLOW-2005, generated by Flopy.
         3         0
         1        -1 # Stress period 1
INTERNAL               1 (150E15.6) -1 #rech_1                        
   1.000000E-03   1.000000E-03   7.671033E-38   3.017811E-37   1.000000E-03   1.000000E-03   6.030797E-37   6.019533E-36   2.921823E-36   1.000000E-03   4.156657E-36   4.505350E-35   1.000000E-03   1.000000E-03   2.990661E-34   2.125092E-33   3.934914E-33   4.690345E-33   4.981634E-33   4.849849E-33   1.975334E-33   1.000000E-03   2.164962E-33   1.166451E-32   1.000000E-03   1.000000E-03   2.032852E-32   2.567597E-31   1.000000E-03   1.000000E-03   2.174362E-31   2.657630E-30   1.000000E-03   1.000000E-03   1.318942E-30   2.417883E-29   2.232677E-31   1.000000E-03   1.000000E-03   1.708049E-28   2.954612E-28   2.373643E-28   1.123664E-28   1.819094E-29   1.000000E-03   1.000000E-03   3.839097E-29   4.065763E-29   1.000000E-03   1.000000E-03   1.000000E-03   7.156123E-28   7.172027E-28   1.000000E-03   1.000000E-03   1.000000E-03   9.055247E-27   2.177438E-26   1.460287E-28   1.000000E-03   1.000000E-03   9.219224E-26   1.263511E-25   1.000000E-03   1.000000E-03   1.000000E-03   1.140142E-26   2.053688E-24   1.799054E-24   1.000000E-03   1.000000E-03   1.000000E-03   7.581596E-25   1.179823E-24   1.000000E-03   1.000000E-03   1.567172E-24   9.986772E-24   7.377313E-24   6.205679E-24   4.007186E-23   5.003064E-23   1.000000E-03   1.000000E-03   2.301371E-22   5.256788E-22   1.000000E-03   1.000000E-03   1.377074E-21   4.155549E-21   1.000000E-03   1.000000E-03   1.000000E-03   6.194385E-21   1.000000E-03   1.000000E-03   1.000000E-03   6.916993E-20   9.195733E-20   5.712028E-20   6.595294E-21   1.000000E-03   1.000000E-03   1.000000E-03   1.000000E-03   1.000000E-03   1.000000E-03   1.000000E-03   1.000000E-03   1.000000E-03   1.000000E-03   7.427508E-23   7.269093E-23   2.099860E-23   1.000000E-03   1.000000E-03   5.793015E-25   1.000000E-03   1.000000E-03   7.502432E-25   3.130669E-24   3.542409E-24   1.000000E-03   1.000000E-03   1.000000E-03   1.000000E-03   1.000000E-03   1.000000E-03   1.000000E-03   1.000000E-03   1.000000E-03   1.000000E-03   1.000000E-03   8.546551E-27   2.146475E-28   1.000000E-03   1.375379E-26   3.342637E-26   3.160286E-26   3.833173E-26   8.336721E-26   1.124297E-25   6.845728E-26   1.701324E-27   1.000000E-03   1.000000E-03   5.469041E-27   3.597977E-28   1.249461E-29   1.249461E-29
   2.375469E-23   8.547085E-21   1.000000E-03   1.000000E-03   5.381373E-22   2.649608E-20   1.000000E-03   1.000000E-03   1.000000E-03   2.862892E-19   6.183121E-21   1.000000E-03   3.266830E-19   3.814356E-18   1.000000E-03   1.000000E-03   1.000000E-03   1.000000E-03   1.000000E-03   1.000000E-03   1.000000E-03   3.785836E-17   1.177257E-16   1.586751E-16   1.719376E-16   1.423347E-16   1.000000E-03   1.000000E-03   1.671269E-16   9.146553E-16   1.000000E-03   1.000000E-03   2.383527E-15   1.227955E-14   1.000000E-03   1.000000E-03   2.839772E-14   1.669991E-13   1.000000E-03   1.000000E-03   1.000000E-03   1.000000E-03   1.000000E-03   1.000000E-03   1.000000E-03   4.286675E-12   6.717765E-12   6.033906E-12   8.717567E-12   1.242428E-11   6.317500E-14   1.000000E-03   3.061703E-11   7.239524E-11   1.000000E-03   1.000000E-03   1.000000E-03   1.000000E-03   1.726310E-10   1.133935E-10   1.000000E-03   1.000000E-03   5.317433E-10   4.562621E-09   1.548407E-08   2.342857E-08   2.988333E-09   1.000000E-03   1.000000E-03   1.000000E-03   1.000000E-03   1.000000E-03   1.000000E-03   1.000000E-03   8.984716E-08   1.203253E-07   1.000000E-03   1.000000E-03   7.249067E-07   2.430972E-06   2.471501E-06   4.466207E-07   1.000000E-03   1.000000E-03   3.137603E-06   6.411284E-06   1.000000E-03   1.000000E-03   2.747202E-05   7.724149E-05   8.433642E-06   1.000000E-03   1.000000E-03   1.000000E-03   1.375335E-04   4.552422E-04   1.383051E-04   1.000000E-03   1.000000E-03   1.000000E-03   1.106874E-04   1.682286E-03   1.580963E-03   3.146697E-04   1.000000E-03   1.000000E-03   7.530653E-05   1.995791E-05   1.000000E-03   1.000000E-03   5.431925E-06   1.249090E-06   1.000000E-03   1.000000E-03   3.585156E-07   8.963103E-08   1.000000E-03   9.211212E-09   4.506969E-08   1.000000E-03   1.000000E-03   1.000000E-03   1.084459E-07   3.417859E-07   2.591373E-07   2.408671E-08   1.000000E-03   1.000000E-03   1.401139E-08   1.636798E-09   1.000000E-03   1.000000E-03   8.918787E-10   1.000000E-03   1.000000E-03   1.000000E-03   3.870711E-10   1.000000E-03   1.000000E-03   1.000000E-03   1.000000E-03   1.000000E-03   1.000000E-03   1.000000E-03   2.271284E-10   8.043550E-12   1.000000E-03   1.000000E-03   1.000000E-03   1.000000E-03
   1.000000E-03   1.000000E-03   4.362814E-24   1.573340E-22   1.000000E-03   1.000000E-03   2.466581E-23   1.741196E-21   3.131882E-22   1.000000E-03   1.000000E-03   1.689724E-20   1.000000E-03   1.000000E-03   2.640348E-20   3.782444E-19   6.738746E-19   7.036516E-19   7.864982E-19   1.029360E-18   6.771988E-19   1.000000E-03   1.000000E-03   1.000000E-03   1.000000E-03   1.000000E-03   5.803384E-19   4.328507E-18   1.000000E-03   1.000000E-03   1.073543E-17   6.018392E-17   1.000000E-03   1.000000E-03   1.875422E-16   8.889550E-16   1.000000E-03   1.000000E-03   1.718177E-15   1.693830E-14   3.474499E-14   4.940257E-14   6.146514E-14   5.964720E-14   1.076477E-14   1.000000E-03   1.000000E-03   1.000000E-03   1.000000E-03   1.000000E-03   1.000000E-03   2.592545E-13   1.000000E-03   1.000000E-03   2.478836E-12   9.550857E-12   1.023330E-11   2.704203E-12   1.000000E-03   1.000000E-03   3.263639E-12   5.345945E-12   1.000000E-03   1.000000E-03   1.000000E-03   1.000000E-03   1.000000E-03   7.268520E-10   1.182852E-09   1.132877E-09   1.054060E-09   1.092313E-09   9.853084E-10   2.580087E-10   1.000000E-03   1.000000E-03   3.532934E-09   6.764525E-09   1.000000E-03   1.000000E-03   1.000000E-03   1.000000E-03   3.328737E-08   3.517762E-08   1.000000E-03   1.000000E-03   6.780262E-08   2.046525E-07   1.000000E-03   1.000000E-03   1.000000E-03   1.170688E-06   9.774695E-06   9.871007E-06   1.000000E-03   1.000000E-03   6.691094E-05   9.337907E-05   1.000000E-03   1.000000E-03   1.100983E-03   2.706343E-03   2.253247E-03   4.354195E-04   1.000000E-03   1.000000E-03   1.039925E-04   2.756794E-05   1.000000E-03   1.000000E-03   7.485663E-06   1.771199E-06   1.000000E-03   1.000000E-03   5.383682E-07   1.122028E-07   1.000000E-03   1.000000E-03   3.825810E-08   7.533965E-09   1.000000E-03   4.822229E-10   8.510349E-10   1.000000E-03   1.000000E-03   1.000000E-03   1.155644E-09   1.501725E-10   1.000000E-03   1.000000E-03   8.161219E-11   8.950155E-12   1.000000E-03   3.159484E-12   1.474414E-11   6.620779E-12   1.000000E-03   5.830840E-12   6.883751E-11   1.253110E-10   1.125576E-10   6.102343E-11   2.075987E-11   4.464017E-13   1.000000E-03   1.000000E-03   4.007554E-12   1.467381E-13   3.803233E-15   3.803233E-15
   1.000000E-03   1.000000E-03   2.453199E-22   8.846848E-21   1.000000E-03   1.000000E-03   1.386952E-21   9.790698E-20   1.761049E-20   1.000000E-03   1.000000E-03   9.501275E-19   1.000000E-03   1.000000E-03   1.484660E-18   2.126858E-17   3.789179E-17   3.956614E-17   4.422458E-17   5.788061E-17   3.807870E-17   1.000000E-03   1.000000E-03   1.000000E-03   1.000000E-03   1.000000E-03   3.263228E-17   2.433908E-16   1.000000E-03   1.000000E-03   6.036506E-16   3.384126E-15   1.000000E-03   1.000000E-03   1.054545E-14   4.998571E-14   1.000000E-03   1.000000E-03   9.661265E-14   9.524360E-13   1.953701E-12   2.777893E-12   3.456169E-12   3.353948E-12   6.052979E-13   1.000000E-03   1.000000E-03   1.000000E-03   1.000000E-03   1.000000E-03   1.000000E-03   1.457819E-11   1.000000E-03   1.000000E-03   1.393862E-10   5.370474E-10   5.754082E-10   1.520371E-10   1.000000E-03   1.000000E-03   1.834036E-10   3.003325E-10   1.000000E-03   1.000000E-03   1.000000E-03   1.000000E-03   1.000000E-03   4.088432E-08   6.648699E-08   6.365098E-08   5.936371E-08   6.160663E-08   5.504107E-08   1.382044E-08   1.000000E-03   1.000000E-03   1.933044E-07   3.710232E-07   1.000000E-03   1.000000E-03   1.000000E-03   1.000000E-03   2.173231E-06   2.443277E-06   1.000000E-03   1.000000E-03   8.225535E-06   1.777248E-05   1.000000E-03   1.000000E-03   1.000000E-03   1.498028E-04   3.038438E-04   2.481811E-04   1.000000E-03   1.000000E-03   2.108482E-04   1.523091E-03   1.889408E-03   1.691376E-03   2.384635E-03   3.244615E-03   2.362807E-03   4.393771E-04   1.000000E-03   1.000000E-03   1.046467E-04   2.774676E-05   1.000000E-03   1.000000E-03   7.521845E-06   1.815129E-06   1.000000E-03   1.000000E-03   5.724065E-07   1.047152E-07   1.000000E-03   1.000000E-03   2.151840E-08   3.578227E-08   1.108612E-07   1.234298E-07   1.000000E-03   1.000000E-03   1.000000E-03   1.000000E-03   5.408998E-08   7.021109E-09   1.000000E-03   1.000000E-03   3.812207E-09   4.210472E-10   1.000000E-03   1.970688E-10   7.737483E-10   3.677744E-10   1.000000E-03   3.288928E-10   3.866783E-09   7.045979E-09   6.330133E-09   3.431379E-09   1.167038E-09   2.509083E-11   1.000000E-03   1.000000E-03   2.252519E-10   8.247765E-12   2.138547E-13   2.138547E-13
   1.737999E-24   6.253429E-22   1.000000E-03   1.000000E-03   3.937253E-23   1.938572E-21   1.000000E-03   1.000000E-03   1.000000E-03   2.094620E-20   4.523847E-22   1.000000E-03   2.390159E-20   2.790753E-19   1.000000E-03   1.000000E-03   1.000000E-03   1.000000E-03   1.000000E-03   1.000000E-03   1.000000E-03   2.769887E-18   8.613339E-18   1.160938E-17   1.257972E-17   1.041385E-17   1.000000E-03   1.000000E-03   1.222776E-17   6.692031E-17   1.000000E-03   1.000000E-03   1.743896E-16   8.984276E-16   1.000000E-03   1.000000E-03   2.077706E-15   1.221841E-14   1.000000E-03   1.000000E-03   1.000000E-03   1.000000E-03   1.000000E-03   1.000000E-03   1.000000E-03   3.136341E-13   4.914997E-13   4.414608E-13   6.378239E-13   9.090406E-13   4.591797E-15   1.000000E-03   2.240197E-12   5.297105E-12   1.000000E-03   1.000000E-03   1.000000E-03   1.000000E-03   1.262350E-11   8.278649E-12   1.000000E-03   1.000000E-03   3.880058E-11   3.335782E-10   1.133286E-09   1.715041E-09   2.170865E-10   1.000000E-03   1.000000E-03   1.000000E-03   1.000000E-03   1.000000E-03   1.000000E-03   1.000000E-03   6.232522E-09   8.182965E-09   1.000000E-03   1.000000E-03   4.801169E-08   1.694386E-07   2.000921E-07   6.366128E-08   1.000000E-03   1.000000E-03   5.120015E-07   8.871897E-07   1.000000E-03   1.000000E-03   6.137944E-06   1.126897E-05   1.000000E-03   1.000000E-03   3.972914E-05   5.911697E-05   1.000000E-03   1.000000E-03   9.951419E-04   2.809436E-03   3.506630E-03   3.262875E-03   3.375396E-03   3.469542E-03   2.255594E-03   4.036698E-04   1.000000E-03   1.000000E-03   9.585787E-05   2.541101E-05   1.000000E-03   1.000000E-03   6.901099E-06   1.629681E-06   1.000000E-03   1.000000E-03   4.934798E-07   1.041679E-07   1.000000E-03   1.000000E-03   3.680308E-08   4.390933E-09   1.000000E-03   1.000000E-03   1.033260E-08   2.538085E-08   1.831846E-08   1.670422E-09   1.000000E-03   1.000000E-03   9.793648E-10   1.143463E-10   1.000000E-03   1.000000E-03   6.199206E-11   1.000000E-03   1.000000E-03   1.000000E-03   2.808781E-11   1.000000E-03   1.000000E-03   1.000000E-03   1.000000E-03   1.000000E-03   1.000000E-03   1.000000E-03   1.661626E-11   5.884500E-13   1.000000E-03   1.000000E-03   1.000000E-03   1.000000E-03
   7.267675E-23   2.614954E-20   1.000000E-03   1.000000E-03   1.646414E-21   8.106395E-20   1.000000E-03   1.000000E-03   1.000000E-03   8.758930E-19   1.891707E-20   1.000000E-03   9.994765E-19   1.166990E-17   1.000000E-03   1.000000E-03   1.000000E-03   1.000000E-03   1.000000E-03   1.000000E-03   1.000000E-03   1.158265E-16   3.601782E-16   4.854617E-16   5.260378E-16   4.354687E-16   1.000000E-03   1.000000E-03   5.113197E-16   2.798360E-15   1.000000E-03   1.000000E-03   7.292329E-15   3.756892E-14   1.000000E-03   1.000000E-03   8.688194E-14   5.109285E-13   1.000000E-03   1.000000E-03   1.000000E-03   1.000000E-03   1.000000E-03   1.000000E-03   1.000000E-03   1.311495E-11   2.055279E-11   1.846054E-11   2.667113E-11   3.801172E-11   1.932496E-13   1.000000E-03   9.367199E-11   2.214914E-10   1.000000E-03   1.000000E-03   1.000000E-03   1.000000E-03   5.281516E-10   3.469051E-10   1.000000E-03   1.000000E-03   1.626741E-09   1.395894E-08   4.737347E-08   7.167996E-08   9.141059E-09   1.000000E-03   1.000000E-03   1.000000E-03   1.000000E-03   1.000000E-03   1.000000E-03   1.000000E-03   2.745215E-07   3.674708E-07   1.000000E-03   1.000000E-03   2.212479E-06   7.428516E-06   7.581994E-06   1.399412E-06   1.000000E-03   1.000000E-03   9.900115E-06   2.006029E-05   1.000000E-03   1.000000E-03   8.844488E-05   2.422991E-04   9.018147E-06   1.000000E-03   1.000000E-03   1.000000E-03   1.912983E-04   1.359827E-03   2.534975E-03   3.379824E-03   3.634473E-03   3.564382E-03   3.699679E-03   3.576175E-03   2.236005E-03   3.943347E-04   1.000000E-03   1.000000E-03   9.352205E-05   2.477554E-05   1.000000E-03   1.000000E-03   6.765842E-06   1.491063E-06   1.000000E-03   1.000000E-03   3.889922E-07   1.263457E-07   1.000000E-03   6.523160E-08   8.712892E-08   1.000000E-03   1.000000E-03   1.000000E-03   3.281535E-07   1.045117E-06   7.937940E-07   7.383172E-08   1.000000E-03   1.000000E-03   4.293678E-08   5.015929E-09   1.000000E-03   1.000000E-03   2.733617E-09   1.000000E-03   1.000000E-03   1.000000E-03   1.184584E-09   1.000000E-03   1.000000E-03   1.000000E-03   1.000000E-03   1.000000E-03   1.000000E-03   1.000000E-03   6.948946E-10   2.460907E-11   1.000000E-03   1.000000E-03   1.000000E-03   1.000000E-03
   1.000000E-03   1.000000E-03   9.468486E-23   3.414573E-21   1.000000E-03   1.000000E-03   5.353146E-22   3.778866E-20   6.797030E-21   1.000000E-03   1.000000E-03   3.667158E-19   1.000000E-03   1.000000E-03   5.730268E-19   8.208925E-18   1.462490E-17   1.527114E-17   1.706914E-17   2.233989E-17   1.469704E-17   1.000000E-03   1.000000E-03   1.000000E-03   1.000000E-03   1.000000E-03   1.259492E-17   9.394037E-17   1.000000E-03   1.000000E-03   2.329881E-16   1.306155E-15   1.000000E-03   1.000000E-03   4.070176E-15   1.929274E-14   1.000000E-03   1.000000E-03   3.728913E-14   3.676070E-13   7.540600E-13   1.072169E-12   1.333960E-12   1.294508E-12   2.336216E-13   1.000000E-03   1.000000E-03   1.000000E-03   1.000000E-03   1.000000E-03   1.000000E-03   5.627073E-12   1.000000E-03   1.000000E-03   5.380017E-11   2.072870E-10   2.220796E-10   5.866031E-11   1.000000E-03   1.000000E-03   7.067094E-11   1.156335E-10   1.000000E-03   1.000000E-03   1.000000E-03   1.000000E-03   1.000000E-03   1.579434E-08   2.563574E-08   2.451369E-08   2.301207E-08   2.397510E-08   2.086009E-08   4.606536E-09   1.000000E-03   1.000000E-03   6.894307E-08   1.333092E-07   1.000000E-03   1.000000E-03   1.000000E-03   1.000000E-03   1.157982E-06   1.435580E-06   1.000000E-03   1.000000E-03   7.846842E-06   1.349225E-05   1.000000E-03   1.000000E-03   6.265965E-05   1.467515E-04   1.000000E-03   1.000000E-03   1.019835E-03   2.960148E-03   3.801401E-03   3.497857E-03   3.174846E-03   3.288093E-03   3.769185E-03   3.843021E-03   2.454958E-03   4.364534E-04   1.000000E-03   1.000000E-03   1.035911E-04   2.746356E-05   1.000000E-03   1.000000E-03   7.452680E-06   1.776657E-06   1.000000E-03   1.000000E-03   5.477834E-07   1.086975E-07   1.000000E-03   1.000000E-03   3.174348E-08   1.807909E-08   3.651651E-08   4.657960E-08   1.000000E-03   1.000000E-03   1.000000E-03   1.000000E-03   2.099670E-08   2.725563E-09   1.000000E-03   1.000000E-03   1.479927E-09   1.634143E-10   1.000000E-03   7.584799E-11   2.992484E-10   1.419976E-10   1.000000E-03   1.269298E-10   1.492486E-09   2.719503E-09   2.443198E-09   1.324391E-09   4.504387E-10   9.684292E-12   1.000000E-03   1.000000E-03   8.694032E-11   3.183384E-12   8.254042E-14   8.254042E-14
   1.000000E-03   1.000000E-03   2.748072E-21   9.910234E-20   1.000000E-03   1.000000E-03   1.553662E-20   1.096753E-18   1.972726E-19   1.000000E-03   1.000000E-03   1.064332E-17   1.000000E-03   1.000000E-03   1.663116E-17   2.382505E-16   4.244636E-16   4.432197E-16   4.954035E-16   6.483783E-16   4.265574E-16   1.000000E-03   1.000000E-03   1.000000E-03   1.000000E-03   1.000000E-03   3.655467E-16   2.726463E-15   1.000000E-03   1.000000E-03   6.762091E-15   3.790897E-14   1.000000E-03   1.000000E-03   1.181301E-13   5.599398E-13   1.000000E-03   1.000000E-03   1.082255E-12   1.066919E-11   2.188535E-11   3.111794E-11   3.871599E-11   3.757093E-11   6.780527E-12   1.000000E-03   1.000000E-03   1.000000E-03   1.000000E-03   1.000000E-03   1.000000E-03   1.633079E-10   1.000000E-03   1.000000E-03   1.561419E-09   6.016045E-09   6.445660E-09   1.702959E-09   1.000000E-03   1.000000E-03   2.053587E-09   3.362127E-09   1.000000E-03   1.000000E-03   1.000000E-03   1.000000E-03   1.000000E-03   4.580974E-07   7.445868E-07   7.126058E-07   6.657626E-07   6.916398E-07   6.136047E-07   1.491952E-07   1.000000E-03   1.000000E-03   2.121628E-06   4.079777E-06   1.000000E-03   1.000000E-03   1.000000E-03   1.000000E-03   2.681031E-05   3.117466E-05   1.000000E-03   1.000000E-03   1.282346E-04   2.503255E-04   1.000000E-03   1.000000E-03   3.920863E-04   2.853480E-03   3.284882E-03   2.102026E-03   2.135544E-03   3.390785E-03   3.937218E-03   3.544582E-03   3.153220E-03   3.259326E-03   3.955884E-03   4.282732E-03   2.818427E-03   5.065653E-04   1.000000E-03   1.000000E-03   1.203751E-04   3.197228E-05   1.000000E-03   1.000000E-03   8.540736E-06   2.423522E-06   1.000000E-03   1.752500E-07   9.721534E-07   3.659541E-08   1.000000E-03   1.000000E-03   1.000000E-03   3.297927E-07   1.346253E-06   1.400301E-06   1.000000E-03   1.000000E-03   1.000000E-03   1.000000E-03   6.039208E-07   7.838977E-08   1.000000E-03   1.000000E-03   4.256203E-08   4.701509E-09   1.000000E-03   2.211119E-09   8.657394E-09   4.118981E-09   1.000000E-03   3.684443E-09   4.331496E-08   7.892898E-08   7.091031E-08   3.843830E-08   1.307310E-08   2.810654E-10   1.000000E-03   1.000000E-03   2.523253E-09   9.239082E-11   2.395600E-12   2.395600E-12
   4.628753E-23   1.665454E-20   1.000000E-03   1.000000E-03   1.048595E-21   5.162931E-20   1.000000E-03   1.000000E-03   1.000000E-03   5.578527E-19   1.204821E-20   1.000000E-03   6.365626E-19   7.432516E-18   1.000000E-03   1.000000E-03   1.000000E-03   1.000000E-03   1.000000E-03   1.000000E-03   1.000000E-03   7.376939E-17   2.293961E-16   3.091888E-16   3.350314E-16   2.773479E-16   1.000000E-03   1.000000E-03   3.256565E-16   1.782258E-15   1.000000E-03   1.000000E-03   4.644440E-15   2.392741E-14   1.000000E-03   1.000000E-03   5.533452E-14   3.254072E-13   1.000000E-03   1.000000E-03   1.000000E-03   1.000000E-03   1.000000E-03   1.000000E-03   1.000000E-03   8.352641E-12   1.309023E-11   1.175826E-11   1.698580E-11   2.420648E-11   1.267556E-13   1.000000E-03   5.964499E-11   1.410250E-10   1.000000E-03   1.000000E-03   1.000000E-03   1.000000E-03   3.372184E-10   2.230882E-10   1.000000E-03   1.000000E-03   1.048668E-09   8.919866E-09   3.012327E-08   4.554355E-08   6.009901E-09   1.000000E-03   1.000000E-03   1.000000E-03   1.000000E-03   1.000000E-03   1.000000E-03   1.000000E-03   2.161267E-07   3.091521E-07   1.000000E-03   1.000000E-03   2.017412E-06   5.750578E-06   2.497053E-06   1.000000E-03   4.630773E-06   8.904761E-06   1.000000E-03   1.000000E-03   1.133458E-04   1.491358E-04   1.000000E-03   1.000000E-03   2.108478E-03   5.857127E-03   6.487624E-03   4.355143E-03   3.059058E-03   3.282305E-03   3.631546E-03   3.633042E-03   3.488018E-03   3.477991E-03   3.847760E-03   3.896312E-03   2.488956E-03   4.425094E-04   1.000000E-03   1.000000E-03   1.050198E-04   2.782959E-05   1.000000E-03   1.000000E-03   7.581273E-06   1.723599E-06   1.000000E-03   1.000000E-03   4.828304E-07   1.295787E-07   1.000000E-03   2.924151E-08   7.234942E-08   1.000000E-03   1.000000E-03   1.000000E-03   2.102063E-07   6.658188E-07   5.052416E-07   4.697691E-08   1.000000E-03   1.000000E-03   2.732323E-08   3.191904E-09   1.000000E-03   1.000000E-03   1.739389E-09   1.000000E-03   1.000000E-03   1.000000E-03   7.543399E-10   1.000000E-03   1.000000E-03   1.000000E-03   1.000000E-03   1.000000E-03   1.000000E-03   1.000000E-03   4.425749E-10   1.567339E-11   1.000000E-03   1.000000E-03   1.000000E-03   1.000000E-03
   1.006520E-21   3.621522E-19   1.000000E-03   1.000000E-03   2.280164E-20   1.122677E-18   1.000000E-03   1.000000E-03   1.000000E-03   1.213048E-17   2.619876E-19   1.000000E-03   1.384202E-17   1.616197E-16   1.000000E-03   1.000000E-03   1.000000E-03   1.000000E-03   1.000000E-03   1.000000E-03   1.000000E-03   1.604112E-15   4.988206E-15   6.723291E-15   7.285241E-15   6.030923E-15   1.000000E-03   1.000000E-03   7.081404E-15   3.875524E-14   1.000000E-03   1.000000E-03   1.009934E-13   5.203020E-13   1.000000E-03   1.000000E-03   1.203251E-12   7.075986E-12   1.000000E-03   1.000000E-03   1.000000E-03   1.000000E-03   1.000000E-03   1.000000E-03   1.000000E-03   1.816322E-10   2.846416E-10   2.556663E-10   3.693744E-10   5.264300E-10   2.682040E-12   1.000000E-03   1.297267E-09   3.067429E-09   1.000000E-03   1.000000E-03   1.000000E-03   1.000000E-03   7.315814E-09   4.807696E-09   1.000000E-03   1.000000E-03   2.254864E-08   1.933666E-07   6.560129E-07   9.925468E-07   1.268872E-07   1.000000E-03   1.000000E-03   1.000000E-03   1.000000E-03   1.000000E-03   1.000000E-03   1.000000E-03   3.865645E-06   5.205137E-06   1.000000E-03   1.000000E-03   3.158012E-05   1.044529E-04   1.014059E-04   1.359238E-05   1.000000E-03   1.000000E-03   8.434452E-05   1.997098E-04   1.000000E-03   1.000000E-03   4.796197E-04   2.818561E-03   5.524214E-03   7.286737E-03   6.724402E-03   4.663291E-03   3.428531E-03   3.411795E-03   3.640736E-03   3.769836E-03   3.885702E-03   3.797941E-03   3.163915E-03   2.091294E-03   9.747126E-04   1.492928E-04   1.000000E-03   1.000000E-03   3.482723E-05   9.001945E-06   1.000000E-03   1.000000E-03   2.973639E-06   1.000000E-03   1.000000E-03   1.000000E-03   1.000000E-03   3.881039E-07   1.181465E-06   1.244577E-06   7.392587E-07   1.000000E-03   1.000000E-03   1.000000E-03   4.511232E-06   1.446888E-05   1.100241E-05   1.023797E-06   1.000000E-03   1.000000E-03   5.952816E-07   6.954242E-08   1.000000E-03   1.000000E-03   3.790411E-08   1.000000E-03   1.000000E-03   1.000000E-03   1.640886E-08   1.000000E-03   1.000000E-03   1.000000E-03   1.000000E-03   1.000000E-03   1.000000E-03   1.000000E-03   9.623806E-09   3.408185E-10   1.000000E-03   1.000000E-03   1.000000E-03   1.000000E-03
   1.000000E-03   1.000000E-03   2.232535E-21   8.051078E-20   1.000000E-03   1.000000E-03   1.262196E-20   8.910029E-19   1.602643E-19   1.000000E-03   1.000000E-03   8.646639E-18   1.000000E-03   1.000000E-03   1.351116E-17   1.935548E-16   3.448344E-16   3.600719E-16   4.024660E-16   5.267427E-16   3.465354E-16   1.000000E-03   1.000000E-03   1.000000E-03   1.000000E-03   1.000000E-03   2.969693E-16   2.214974E-15   1.000000E-03   1.000000E-03   5.493510E-15   3.079717E-14   1.000000E-03   1.000000E-03   9.596868E-14   4.548940E-13   1.000000E-03   1.000000E-03   8.792201E-13   8.667633E-12   1.777968E-11   2.528029E-11   3.145282E-11   3.052240E-11   5.508748E-12   1.000000E-03   1.000000E-03   1.000000E-03   1.000000E-03   1.000000E-03   1.000000E-03   1.326262E-10   1.000000E-03   1.000000E-03   1.268274E-09   4.886813E-09   5.237325E-09   1.385801E-09   1.000000E-03   1.000000E-03   1.681383E-09   2.763260E-09   1.000000E-03   1.000000E-03   1.000000E-03   1.000000E-03   1.000000E-03   3.705411E-07   6.078061E-07   5.849016E-07   5.296831E-07   5.397935E-07   5.415185E-07   2.027746E-07   1.000000E-03   1.000000E-03   2.358706E-06   4.423349E-06   1.000000E-03   1.000000E-03   1.000000E-03   1.018629E-05   1.000000E-03   1.000000E-03   1.014227E-04   1.339268E-04   1.000000E-03   1.000000E-03   1.843192E-03   5.675842E-03   7.573987E-03   6.955702E-03   5.412341E-03   4.057621E-03   3.546506E-03   3.695088E-03   3.781320E-03   3.801226E-03   4.166925E-03   4.198965E-03   2.663246E-03   4.263168E-04   1.000000E-03   1.000000E-03   1.220338E-04   3.412354E-05   1.000000E-03   1.000000E-03   8.682558E-06   1.924812E-06   1.000000E-03   1.000000E-03   1.202487E-06   7.031232E-07   1.147433E-07   1.000000E-03   1.000000E-03   1.000000E-03   1.000000E-03   2.591084E-07   1.106650E-06   1.139794E-06   1.000000E-03   1.000000E-03   1.000000E-03   1.000000E-03   4.903779E-07   6.365154E-08   1.000000E-03   1.000000E-03   3.455975E-08   3.817639E-09   1.000000E-03   1.796755E-09   7.032013E-09   3.346159E-09   1.000000E-03   2.993266E-09   3.518900E-08   6.412193E-08   5.760759E-08   3.122729E-08   1.062058E-08   2.283374E-10   1.000000E-03   1.000000E-03   2.049890E-09   7.505827E-11   1.946186E-12   1.946186E-12
   1.000000E-03   1.000000E-03   3.867666E-20   1.394777E-18   1.000000E-03   1.000000E-03   2.186641E-19   1.543582E-17   2.776435E-18   1.000000E-03   1.000000E-03   1.497952E-16   1.000000E-03   1.000000E-03   2.340687E-16   3.353163E-15   5.973946E-15   6.237921E-15   6.972362E-15   9.125345E-15   6.003415E-15   1.000000E-03   1.000000E-03   1.000000E-03   1.000000E-03   1.000000E-03   5.144739E-15   3.837251E-14   1.000000E-03   1.000000E-03   9.517033E-14   5.335345E-13   1.000000E-03   1.000000E-03   1.662574E-12   7.880648E-12   1.000000E-03   1.000000E-03   1.523175E-11   1.501592E-10   3.080168E-10   4.379574E-10   5.448926E-10   5.287763E-10   9.543078E-11   1.000000E-03   1.000000E-03   1.000000E-03   1.000000E-03   1.000000E-03   1.000000E-03   2.298242E-09   1.000000E-03   1.000000E-03   2.197473E-08   8.466809E-08   9.072018E-08   2.397636E-08   1.000000E-03   1.000000E-03   2.895163E-08   4.743917E-08   1.000000E-03   1.000000E-03   1.000000E-03   1.000000E-03   1.000000E-03   6.441210E-06   1.049035E-05   1.005185E-05   9.327824E-06   9.650852E-06   8.798265E-06   2.407530E-06   1.000000E-03   1.000000E-03   3.225610E-05   6.160302E-05   1.000000E-03   1.000000E-03   1.000000E-03   1.000000E-03   2.423409E-04   2.304444E-04   1.000000E-03   1.000000E-03   1.000000E-03   1.026943E-03   3.136070E-03   5.293454E-03   6.018193E-03   5.333733E-03   4.395877E-03   3.811523E-03   3.728136E-03   3.891139E-03   3.820684E-03   3.747398E-03   4.275269E-03   4.517155E-03   2.816123E-03   2.135204E-04   1.000000E-03   1.000000E-03   1.719985E-04   4.780454E-05   1.000000E-03   1.000000E-03   1.047338E-05   1.000000E-03   1.000000E-03   4.486995E-06   1.076812E-05   9.940713E-06   4.684670E-06   1.000000E-03   1.000000E-03   1.000000E-03   1.000000E-03   4.524039E-06   1.911997E-05   1.973717E-05   1.000000E-03   1.000000E-03   1.000000E-03   1.000000E-03   8.496346E-06   1.102835E-06   1.000000E-03   1.000000E-03   5.987872E-07   6.614463E-08   1.000000E-03   3.112540E-08   1.218283E-07   5.796961E-08   1.000000E-03   5.185555E-08   6.096182E-07   1.110855E-06   9.979996E-07   5.409847E-07   1.839921E-07   3.955742E-09   1.000000E-03   1.000000E-03   3.551251E-08   1.300317E-09   3.371592E-11   3.371592E-11
   9.859675E-22   3.547572E-19   1.000000E-03   1.000000E-03   2.233605E-20   1.099752E-18   1.000000E-03   1.000000E-03   1.000000E-03   1.188278E-17   2.566380E-19   1.000000E-03   1.355938E-17   1.583195E-16   1.000000E-03   1.000000E-03   1.000000E-03   1.000000E-03   1.000000E-03   1.000000E-03   1.000000E-03   1.571357E-15   4.886350E-15   6.586007E-15   7.136480E-15   5.907771E-15   1.000000E-03   1.000000E-03   6.936796E-15   3.796382E-14   1.000000E-03   1.000000E-03   9.893104E-14   5.096769E-13   1.000000E-03   1.000000E-03   1.178679E-12   6.931488E-12   1.000000E-03   1.000000E-03   1.000000E-03   1.000000E-03   1.000000E-03   1.000000E-03   1.000000E-03   1.779212E-10   2.788317E-10   2.504538E-10   3.618227E-10   5.156507E-10   2.663384E-12   1.000000E-03   1.270637E-09   3.004382E-09   1.000000E-03   1.000000E-03   1.000000E-03   1.000000E-03   7.174688E-09   4.730604E-09   1.000000E-03   1.000000E-03   2.221202E-08   1.897077E-07   6.421390E-07   9.712076E-07   1.261431E-07   1.000000E-03   1.000000E-03   1.000000E-03   1.000000E-03   1.000000E-03   1.000000E-03   1.000000E-03   4.192292E-06   5.836738E-06   1.000000E-03   1.000000E-03   3.691607E-05   1.124594E-04   7.695313E-05   1.000000E-03   8.505353E-06   5.062673E-05   1.000000E-03   1.000000E-03   1.204761E-03   3.550832E-03   4.515572E-03   4.025911E-03   3.681598E-03   3.865797E-03   4.017112E-03   3.969035E-03   3.866119E-03   3.846051E-03   4.021197E-03   4.310311E-03   4.477400E-03   4.029829E-03   2.421511E-03   4.554029E-04   1.000000E-03   1.000000E-03   9.416987E-05   2.642872E-05   1.000000E-03   1.000000E-03   7.286865E-06   2.965214E-06   1.000000E-03   1.000000E-03   1.000000E-03   1.000000E-03   1.000000E-03   3.158404E-07   1.239832E-06   1.235283E-06   7.020787E-07   1.000000E-03   1.000000E-03   1.000000E-03   4.417534E-06   1.417319E-05   1.077817E-05   1.002952E-06   1.000000E-03   1.000000E-03   5.831565E-07   6.812597E-08   1.000000E-03   1.000000E-03   3.713228E-08   1.000000E-03   1.000000E-03   1.000000E-03   1.607395E-08   1.000000E-03   1.000000E-03   1.000000E-03   1.000000E-03   1.000000E-03   1.000000E-03   1.000000E-03   9.427295E-09   3.338592E-10   1.000000E-03   1.000000E-03   1.000000E-03   1.000000E-03