# DIS package for  MODFLOW-2005, generated by Flopy.
         1       150       150         1         4         2
  0
CONSTANT    5.000000E+01                           #delr                          
CONSTANT    5.000000E+01                           #delc                          
INTERNAL               1 (150E15.6) -1 #model_top                     
   0.000000E+00   0.000000E+00   0.000000E+00   0.000000E+00  -0.000000E+00   0.000000E+00   0.000000E+00   0.000000E+00   0.000000E+00  -0.000000E+00   0.000000E+00   0.000000E+00   0.000000E+00   0.000000E+00  -0.000000E+00   0.000000E+00   0.000000E+00   0.000000E+00   0.000000E+00   0.000000E+00   0.000000E+00   0.000000E+00  -0.000000E+00   0.000000E+00   0.000000E+00   0.000000E+00   0.000000E+00  -0.000000E+00   0.000000E+00   0.000000E+00   0.000000E+00   0.000000E+00  -0.000000E+00   0.000000E+00   0.000000E+00   0.000000E+00   0.000000E+00  -0.000000E+00   0.000000E+00  -0.000000E+00   0.000000E+00  -0.000000E+00   0.000000E+00  -0.000000E+00   0.000000E+00   0.000000E+00   0.000000E+00  -0.000000E+00   0.000000E+00  -0.000000E+00  -0.000000E+00   0.000000E+00  -0.000000E+00   0.000000E+00   0.000000E+00   0.000000E+00  -0.000000E+00  -0.000000E+00  -0.000000E+00  -0.000000E+00   0.000000E+00  -0.000000E+00   0.000000E+00  -0.000000E+00  -0.000000E+00  -0.000000E+00  -0.000000E+00   0.000000E+00   0.000000E+00  -0.000000E+00  -0.000000E+00  -0.000000E+00   0.000000E+00  -0.000000E+00   0.000000E+00  -0.000000E+00   0.000000E+00   0.000000E+00  -0.000000E+00  -0.000000E+00   0.000000E+00   0.000000E+00   0.000000E+00   0.000000E+00   0.000000E+00   0.000000E+00   0.000000E+00   0.000000E+00   0.000000E+00  -0.000000E+00   0.000000E+00   0.000000E+00  -0.000000E+00  -0.000000E+00   0.000000E+00   0.000000E+00   0.000000E+00   0.000000E+00  -0.000000E+00  -6.726233E-44   1.207455E-34  -9.662924E-25   4.125019E-15  -9.830914E-06   8.717945E+01  -1.412361E-06   4.759256E-16  -9.609084E-26   7.715273E-36   4.203895E-45  -0.000000E+00   0.000000E+00  -0.000000E+00  -0.000000E+00   0.000000E+00  -0.000000E+00   0.000000E+00  -0.000000E+00  -0.000000E+00   0.000000E+00  -0.000000E+00   0.000000E+00   0.000000E+00  -0.000000E+00  -0.000000E+00   0.000000E+00  -0.000000E+00   0.000000E+00   0.000000E+00  -0.000000E+00   0.000000E+00   0.000000E+00  -0.000000E+00   0.000000E+00  -0.000000E+00   0.000000E+00   0.000000E+00  -0.000000E+00   0.000000E+00  -0.000000E+00  -0.000000E+00   0.000000E+00   0.000000E+00  -0.000000E+00   0.000000E+00  -0.000000E+00   0.000000E+00  -0.000000E+00   0.000000E+00   0.000000E+00
   0.000000E+00   0.000000E+00   0.000000E+00   0.000000E+00   0.000000E+00   0.000000E+00   0.000000E+00  -0.000000E+00   0.000000E+00  -0.000000E+00  -0.000000E+00   0.000000E+00   0.000000E+00  -0.000000E+00   0.000000E+00   0.000000E+00   0.000000E+00   0.000000E+00  -0.000000E+00   0.000000E+00   0.000000E+00   0.000000E+00   0.000000E+00   0.000000E+00  -0.000000E+00   0.000000E+00   0.000000E+00  -0.000000E+00   0.000000E+00   0.000000E+00   0.000000E+00   0.000000E+00  -0.000000E+00  -0.000000E+00   0.000000E+00  -0.000000E+00   0.000000E+00   0.000000E+00  -0.000000E+00   0.000000E+00  -0.000000E+00   0.000000E+00  -0.000000E+00   0.000000E+00  -0.000000E+00   0.000000E+00   0.000000E+00   0.000000E+00  -0.000000E+00   0.000000E+00   0.000000E+00  -0.000000E+00   0.000000E+00  -0.000000E+00  -0.000000E+00  -0.000000E+00   0.000000E+00   0.000000E+00   0.000000E+00   0.000000E+00  -0.000000E+00   0.000000E+00  -0.000000E+00   0.000000E+00   0.000000E+00   0.000000E+00   0.000000E+00  -0.000000E+00  -0.000000E+00   0.000000E+00   0.000000E+00   0.000000E+00  -0.000000E+00  -0.000000E+00   0.000000E+00  -0.000000E+00   0.000000E+00   0.000000E+00  -0.000000E+00   0.000000E+00  -0.000000E+00  -0.000000E+00  -0.000000E+00  -0.000000E+00  -0.000000E+00  -0.000000E+00  -0.000000E+00  -0.000000E+00  -0.000000E+00   0.000000E+00  -0.000000E+00  -0.000000E+00   0.000000E+00   0.000000E+00  -0.000000E+00  -0.000000E+00  -1.401298E-45   5.937928E-38  -8.482551E-29   9.813687E-20  -1.240370E-15   6.262580E-11   8.505863E-02   3.609118E+01   6.686701E+01  -3.945029E-04   1.329363E-13  -2.684025E-23   2.155043E-33   9.809089E-43  -0.000000E+00   0.000000E+00  -0.000000E+00  -0.000000E+00   0.000000E+00  -0.000000E+00   0.000000E+00  -0.000000E+00  -0.000000E+00   0.000000E+00  -0.000000E+00   0.000000E+00   0.000000E+00  -0.000000E+00   0.000000E+00  -0.000000E+00   0.000000E+00  -0.000000E+00  -0.000000E+00   0.000000E+00  -0.000000E+00  -0.000000E+00   0.000000E+00  -0.000000E+00   0.000000E+00  -0.000000E+00  -0.000000E+00   0.000000E+00  -0.000000E+00  -0.000000E+00  -0.000000E+00   0.000000E+00  -0.000000E+00   0.000000E+00  -0.000000E+00   0.000000E+00  -0.000000E+00   0.000000E+00  -0.000000E+00   0.000000E+00
   0.000000E+00  -0.000000E+00  -0.000000E+00   0.000000E+00  -0.000000E+00   0.000000E+00  -0.000000E+00   0.000000E+00   0.000000E+00   0.000000E+00   0.000000E+00  -0.000000E+00   0.000000E+00   0.000000E+00   0.000000E+00  -0.000000E+00   0.000000E+00   0.000000E+00   0.000000E+00  -0.000000E+00   0.000000E+00   0.000000E+00  -0.000000E+00  -0.000000E+00   0.000000E+00   0.000000E+00   0.000000E+00   0.000000E+00  -0.000000E+00   0.000000E+00   0.000000E+00  -0.000000E+00   0.000000E+00   0.000000E+00  -0.000000E+00   0.000000E+00  -0.000000E+00  -0.000000E+00   0.000000E+00  -0.000000E+00   0.000000E+00  -0.000000E+00   0.000000E+00  -0.000000E+00   0.000000E+00  -0.000000E+00  -0.000000E+00  -0.000000E+00   0.000000E+00  -0.000000E+00  -0.000000E+00   0.000000E+00  -0.000000E+00   0.000000E+00   0.000000E+00   0.000000E+00  -0.000000E+00  -0.000000E+00  -0.000000E+00  -0.000000E+00   0.000000E+00  -0.000000E+00   0.000000E+00  -0.000000E+00  -0.000000E+00  -0.000000E+00  -0.000000E+00   0.000000E+00   0.000000E+00  -0.000000E+00  -0.000000E+00  -0.000000E+00   0.000000E+00   0.000000E+00  -0.000000E+00   0.000000E+00  -0.000000E+00  -0.000000E+00   0.000000E+00  -0.000000E+00   0.000000E+00   0.000000E+00   0.000000E+00   0.000000E+00   0.000000E+00   0.000000E+00   0.000000E+00   0.000000E+00   0.000000E+00  -0.000000E+00   0.000000E+00   0.000000E+00  -0.000000E+00  -0.000000E+00   0.000000E+00   5.605194E-45   5.839036E-36  -3.622386E-28   5.174714E-19  -5.986762E-10   7.566730E-06  -9.159865E-04   6.614811E+01   9.546451E+01   5.425386E+01   8.947862E-07  -3.015177E-16   6.087734E-26  -4.887930E-36  -2.802597E-45   0.000000E+00  -0.000000E+00   0.000000E+00   0.000000E+00  -0.000000E+00   0.000000E+00  -0.000000E+00   0.000000E+00   0.000000E+00  -0.000000E+00   0.000000E+00  -0.000000E+00   0.000000E+00   0.000000E+00  -0.000000E+00   0.000000E+00  -0.000000E+00   0.000000E+00   0.000000E+00  -0.000000E+00   0.000000E+00   0.000000E+00  -0.000000E+00   0.000000E+00  -0.000000E+00   0.000000E+00   0.000000E+00  -0.000000E+00   0.000000E+00   0.000000E+00   0.000000E+00  -0.000000E+00   0.000000E+00  -0.000000E+00   0.000000E+00  -0.000000E+00   0.000000E+00  -0.000000E+00   0.000000E+00   0.000000E+00
   0.000000E+00  -0.000000E+00  -0.000000E+00   0.000000E+00   0.000000E+00   0.000000E+00  -0.000000E+00   0.000000E+00  -0.000000E+00   0.000000E+00   0.000000E+00  -0.000000E+00   0.000000E+00   0.000000E+00   0.000000E+00  -0.000000E+00   0.000000E+00  -0.000000E+00   0.000000E+00  -0.000000E+00   0.000000E+00   0.000000E+00   0.000000E+00  -0.000000E+00   0.000000E+00   0.000000E+00   0.000000E+00   0.000000E+00   0.000000E+00   0.000000E+00   0.000000E+00  -0.000000E+00   0.000000E+00  -0.000000E+00   0.000000E+00  -0.000000E+00   0.000000E+00   0.000000E+00  -0.000000E+00   0.000000E+00  -0.000000E+00   0.000000E+00  -0.000000E+00   0.000000E+00  -0.000000E+00   0.000000E+00   0.000000E+00   0.000000E+00  -0.000000E+00   0.000000E+00   0.000000E+00  -0.000000E+00   0.000000E+00  -0.000000E+00  -0.000000E+00  -0.000000E+00   0.000000E+00   0.000000E+00   0.000000E+00   0.000000E+00  -0.000000E+00   0.000000E+00  -0.000000E+00   0.000000E+00   0.000000E+00   0.000000E+00   0.000000E+00  -0.000000E+00  -0.000000E+00   0.000000E+00   0.000000E+00   0.000000E+00  -0.000000E+00  -0.000000E+00   0.000000E+00  -0.000000E+00   0.000000E+00   0.000000E+00  -0.000000E+00   0.000000E+00  -0.000000E+00  -0.000000E+00  -0.000000E+00  -0.000000E+00  -0.000000E+00  -0.000000E+00  -0.000000E+00  -0.000000E+00  -0.000000E+00   0.000000E+00  -0.000000E+00  -0.000000E+00   0.000000E+00   0.000000E+00  -1.919779E-43  -2.078171E-35  -2.109304E-26   7.448075E-19   3.025110E-12  -1.009648E-04   5.749456E+00   4.177001E+01   9.402023E+01   1.569353E+02   1.337284E+01  -9.779054E-06   3.295267E-15  -6.653246E-25   5.341988E-35   2.382207E-44  -0.000000E+00   0.000000E+00  -0.000000E+00  -0.000000E+00   0.000000E+00  -0.000000E+00   0.000000E+00  -0.000000E+00  -0.000000E+00   0.000000E+00  -0.000000E+00  -0.000000E+00  -0.000000E+00  -0.000000E+00   0.000000E+00  -0.000000E+00   0.000000E+00  -0.000000E+00  -0.000000E+00   0.000000E+00  -0.000000E+00  -0.000000E+00   0.000000E+00  -0.000000E+00   0.000000E+00  -0.000000E+00  -0.000000E+00   0.000000E+00  -0.000000E+00  -0.000000E+00  -0.000000E+00   0.000000E+00  -0.000000E+00   0.000000E+00  -0.000000E+00   0.000000E+00  -0.000000E+00   0.000000E+00  -0.000000E+00   0.000000E+00
   0.000000E+00   0.000000E+00   0.000000E+00   0.000000E+00  -0.000000E+00   0.000000E+00   0.000000E+00   0.000000E+00   0.000000E+00  -0.000000E+00  -0.000000E+00   0.000000E+00   0.000000E+00  -0.000000E+00   0.000000E+00   0.000000E+00   0.000000E+00   0.000000E+00  -0.000000E+00   0.000000E+00   0.000000E+00  -0.000000E+00  -0.000000E+00   0.000000E+00  -0.000000E+00   0.000000E+00   0.000000E+00   0.000000E+00   0.000000E+00   0.000000E+00   0.000000E+00   0.000000E+00  -0.000000E+00   0.000000E+00  -0.000000E+00   0.000000E+00  -0.000000E+00  -0.000000E+00   0.000000E+00  -0.000000E+00   0.000000E+00  -0.000000E+00   0.000000E+00  -0.000000E+00   0.000000E+00  -0.000000E+00  -0.000000E+00  -0.000000E+00   0.000000E+00  -0.000000E+00  -0.000000E+00   0.000000E+00  -0.000000E+00   0.000000E+00   0.000000E+00   0.000000E+00  -0.000000E+00  -0.000000E+00  -0.000000E+00  -0.000000E+00   0.000000E+00  -0.000000E+00   0.000000E+00  -0.000000E+00  -0.000000E+00  -0.000000E+00  -0.000000E+00   0.000000E+00   0.000000E+00  -0.000000E+00  -0.000000E+00  -0.000000E+00   0.000000E+00   0.000000E+00  -0.000000E+00   0.000000E+00  -0.000000E+00  -0.000000E+00   0.000000E+00  -0.000000E+00   0.000000E+00   0.000000E+00   0.000000E+00   0.000000E+00   0.000000E+00   0.000000E+00   0.000000E+00   0.000000E+00   0.000000E+00  -0.000000E+00   0.000000E+00   0.000000E+00  -0.000000E+00  -1.345247E-41   3.146923E-34   3.407761E-26   3.458854E-17  -1.223461E-09   2.079150E-03   7.033313E+00   4.674606E+01   1.046595E+02   1.778773E+02   1.174118E+02   1.715458E+01   4.945718E-02  -1.848946E-11   3.733079E-21  -2.997344E-31  -1.364626E-40   0.000000E+00  -0.000000E+00   0.000000E+00   0.000000E+00  -0.000000E+00   0.000000E+00  -0.000000E+00   0.000000E+00   0.000000E+00  -0.000000E+00   0.000000E+00   0.000000E+00   0.000000E+00   0.000000E+00  -0.000000E+00   0.000000E+00  -0.000000E+00   0.000000E+00   0.000000E+00  -0.000000E+00   0.000000E+00   0.000000E+00  -0.000000E+00   0.000000E+00  -0.000000E+00   0.000000E+00   0.000000E+00  -0.000000E+00   0.000000E+00   0.000000E+00   0.000000E+00  -0.000000E+00   0.000000E+00  -0.000000E+00   0.000000E+00  -0.000000E+00   0.000000E+00  -0.000000E+00   0.000000E+00  -0.000000E+00
   0.000000E+00   0.000000E+00  -0.000000E+00   0.000000E+00   0.000000E+00   0.000000E+00   0.000000E+00   0.000000E+00  -0.000000E+00   0.000000E+00   0.000000E+00   0.000000E+00   0.000000E+00   0.000000E+00   0.000000E+00  -0.000000E+00  -0.000000E+00  -0.000000E+00   0.000000E+00   0.000000E+00   0.000000E+00   0.000000E+00   0.000000E+00  -0.000000E+00   0.000000E+00   0.000000E+00  -0.000000E+00   0.000000E+00   0.000000E+00   0.000000E+00   0.000000E+00  -0.000000E+00  -0.000000E+00   0.000000E+00  -0.000000E+00   0.000000E+00  -0.000000E+00  -0.000000E+00   0.000000E+00  -0.000000E+00   0.000000E+00  -0.000000E+00   0.000000E+00  -0.000000E+00   0.000000E+00  -0.000000E+00  -0.000000E+00  -0.000000E+00   0.000000E+00  -0.000000E+00  -0.000000E+00   0.000000E+00  -0.000000E+00   0.000000E+00   0.000000E+00   0.000000E+00  -0.000000E+00  -0.000000E+00  -0.000000E+00  -0.000000E+00   0.000000E+00  -0.000000E+00   0.000000E+00  -0.000000E+00  -0.000000E+00  -0.000000E+00  -0.000000E+00   0.000000E+00   0.000000E+00  -0.000000E+00  -0.000000E+00  -0.000000E+00   0.000000E+00   0.000000E+00  -0.000000E+00   0.000000E+00  -0.000000E+00  -0.000000E+00   0.000000E+00  -0.000000E+00   0.000000E+00   0.000000E+00   0.000000E+00   0.000000E+00   0.000000E+00   0.000000E+00   0.000000E+00   0.000000E+00   0.000000E+00  -0.000000E+00   0.000000E+00   0.000000E+00  -5.795280E-40  -4.736561E-32   1.106748E-24   1.188467E-16   1.468740E-07   1.643152E+00   1.158317E+01   6.942486E+01   1.112880E+02   1.822987E+02   1.610180E+02   4.438876E+01   5.879438E+00   4.725644E+00  -3.380787E-07   6.825912E-17  -5.480624E-27  -2.495206E-36   1.401298E-45  -0.000000E+00   0.000000E+00   0.000000E+00  -0.000000E+00   0.000000E+00  -0.000000E+00   0.000000E+00   0.000000E+00  -0.000000E+00   0.000000E+00   0.000000E+00   0.000000E+00   0.000000E+00  -0.000000E+00   0.000000E+00  -0.000000E+00   0.000000E+00   0.000000E+00  -0.000000E+00   0.000000E+00   0.000000E+00  -0.000000E+00   0.000000E+00  -0.000000E+00   0.000000E+00   0.000000E+00  -0.000000E+00   0.000000E+00   0.000000E+00   0.000000E+00  -0.000000E+00   0.000000E+00  -0.000000E+00   0.000000E+00  -0.000000E+00   0.000000E+00  -0.000000E+00   0.000000E+00   0.000000E+00
   0.000000E+00   0.000000E+00   0.000000E+00   0.000000E+00   0.000000E+00   0.000000E+00   0.000000E+00  -0.000000E+00   0.000000E+00  -0.000000E+00  -0.000000E+00   0.000000E+00   0.000000E+00  -0.000000E+00   0.000000E+00   0.000000E+00   0.000000E+00   0.000000E+00  -0.000000E+00   0.000000E+00   0.000000E+00   0.000000E+00   0.000000E+00   0.000000E+00  -0.000000E+00   0.000000E+00   0.000000E+00  -0.000000E+00   0.000000E+00   0.000000E+00  -0.000000E+00   0.000000E+00   0.000000E+00  -0.000000E+00   0.000000E+00  -0.000000E+00   0.000000E+00   0.000000E+00  -0.000000E+00   0.000000E+00  -0.000000E+00   0.000000E+00  -0.000000E+00   0.000000E+00  -0.000000E+00   0.000000E+00   0.000000E+00   0.000000E+00  -0.000000E+00   0.000000E+00   0.000000E+00  -0.000000E+00   0.000000E+00  -0.000000E+00  -0.000000E+00  -0.000000E+00   0.000000E+00   0.000000E+00   0.000000E+00   0.000000E+00  -0.000000E+00   0.000000E+00  -0.000000E+00   0.000000E+00   0.000000E+00   0.000000E+00   0.000000E+00  -0.000000E+00  -0.000000E+00   0.000000E+00   0.000000E+00   0.000000E+00  -0.000000E+00  -0.000000E+00   0.000000E+00  -0.000000E+00   0.000000E+00   0.000000E+00  -0.000000E+00   0.000000E+00  -0.000000E+00  -0.000000E+00  -0.000000E+00  -0.000000E+00  -0.000000E+00  -0.000000E+00  -0.000000E+00  -0.000000E+00  -0.000000E+00   0.000000E+00  -0.000000E+00  -1.592727E-39   5.812460E-30   4.746779E-22  -1.023016E-14  -4.144508E-07   3.889423E+00   2.747810E+01   5.453934E+01   1.433018E+02   1.727090E+02   1.391809E+02   1.224509E+02   3.432950E+01   5.113925E+00   2.951848E+00  -3.667989E-08   7.405782E-18  -5.946210E-28  -2.707177E-37   0.000000E+00  -0.000000E+00   0.000000E+00   0.000000E+00  -0.000000E+00   0.000000E+00  -0.000000E+00   0.000000E+00   0.000000E+00   0.000000E+00   0.000000E+00  -0.000000E+00  -0.000000E+00  -0.000000E+00   0.000000E+00  -0.000000E+00   0.000000E+00  -0.000000E+00  -0.000000E+00   0.000000E+00  -0.000000E+00  -0.000000E+00   0.000000E+00  -0.000000E+00   0.000000E+00  -0.000000E+00  -0.000000E+00   0.000000E+00  -0.000000E+00  -0.000000E+00  -0.000000E+00   0.000000E+00  -0.000000E+00   0.000000E+00  -0.000000E+00   0.000000E+00  -0.000000E+00   0.000000E+00  -0.000000E+00   0.000000E+00
   0.000000E+00   0.000000E+00   0.000000E+00   0.000000E+00   0.000000E+00   0.000000E+00   0.000000E+00  -0.000000E+00   0.000000E+00  -0.000000E+00  -0.000000E+00   0.000000E+00   0.000000E+00  -0.000000E+00   0.000000E+00   0.000000E+00   0.000000E+00   0.000000E+00  -0.000000E+00   0.000000E+00   0.000000E+00   0.000000E+00   0.000000E+00   0.000000E+00  -0.000000E+00   0.000000E+00   0.000000E+00  -0.000000E+00   0.000000E+00  -0.000000E+00   0.000000E+00  -0.000000E+00  -0.000000E+00   0.000000E+00  -0.000000E+00   0.000000E+00  -0.000000E+00  -0.000000E+00   0.000000E+00  -0.000000E+00   0.000000E+00  -0.000000E+00   0.000000E+00  -0.000000E+00   0.000000E+00  -0.000000E+00  -0.000000E+00  -0.000000E+00   0.000000E+00  -0.000000E+00  -0.000000E+00   0.000000E+00  -0.000000E+00   0.000000E+00   0.000000E+00   0.000000E+00  -0.000000E+00  -0.000000E+00  -0.000000E+00  -0.000000E+00   0.000000E+00  -0.000000E+00   0.000000E+00  -0.000000E+00  -0.000000E+00  -0.000000E+00  -0.000000E+00   0.000000E+00   0.000000E+00  -0.000000E+00  -0.000000E+00  -0.000000E+00   0.000000E+00   0.000000E+00  -0.000000E+00   0.000000E+00  -0.000000E+00  -0.000000E+00   0.000000E+00  -0.000000E+00   1.260888E-41   0.000000E+00   0.000000E+00   0.000000E+00   0.000000E+00   0.000000E+00   0.000000E+00   0.000000E+00   0.000000E+00  -0.000000E+00   9.033947E-40   7.423694E-30  -2.709192E-20  -2.211870E-12   4.629995E-05   3.134520E+00   2.457647E+01   5.545805E+01   9.229312E+01   1.401345E+02   1.356011E+02   1.044949E+02   8.308802E+01   1.789378E+01   4.707423E+00   3.952903E-01  -2.738354E-11   5.528821E-21  -4.439171E-31  -2.021051E-40   0.000000E+00  -0.000000E+00   0.000000E+00   0.000000E+00  -0.000000E+00   0.000000E+00  -0.000000E+00  -0.000000E+00  -0.000000E+00  -0.000000E+00  -0.000000E+00   0.000000E+00   0.000000E+00   0.000000E+00  -0.000000E+00   0.000000E+00  -0.000000E+00   0.000000E+00   0.000000E+00  -0.000000E+00   0.000000E+00   0.000000E+00  -0.000000E+00   0.000000E+00  -0.000000E+00   0.000000E+00   0.000000E+00  -0.000000E+00   0.000000E+00   0.000000E+00   0.000000E+00  -0.000000E+00   0.000000E+00  -0.000000E+00   0.000000E+00  -0.000000E+00   0.000000E+00  -0.000000E+00   0.000000E+00   0.000000E+00
   0.000000E+00  -0.000000E+00  -0.000000E+00   0.000000E+00   0.000000E+00   0.000000E+00  -0.000000E+00   0.000000E+00  -0.000000E+00   0.000000E+00   0.000000E+00  -0.000000E+00   0.000000E+00   0.000000E+00   0.000000E+00  -0.000000E+00   0.000000E+00  -0.000000E+00   0.000000E+00  -0.000000E+00   0.000000E+00   0.000000E+00   0.000000E+00  -0.000000E+00   0.000000E+00   0.000000E+00   0.000000E+00   0.000000E+00  -0.000000E+00   0.000000E+00  -0.000000E+00   0.000000E+00   0.000000E+00  -0.000000E+00   0.000000E+00  -0.000000E+00   0.000000E+00   0.000000E+00  -0.000000E+00   0.000000E+00  -0.000000E+00   0.000000E+00  -0.000000E+00   0.000000E+00  -0.000000E+00   0.000000E+00   0.000000E+00   0.000000E+00  -0.000000E+00   0.000000E+00   0.000000E+00  -0.000000E+00   0.000000E+00  -0.000000E+00  -0.000000E+00  -0.000000E+00   0.000000E+00   0.000000E+00   0.000000E+00   0.000000E+00  -0.000000E+00   0.000000E+00  -0.000000E+00   0.000000E+00   0.000000E+00   0.000000E+00   0.000000E+00  -0.000000E+00  -0.000000E+00   0.000000E+00   0.000000E+00   0.000000E+00  -0.000000E+00  -0.000000E+00   0.000000E+00  -0.000000E+00   0.000000E+00   0.000000E+00  -0.000000E+00   1.395315E-40  -3.455171E-32  -7.029670E-40  -0.000000E+00  -0.000000E+00  -0.000000E+00  -0.000000E+00  -0.000000E+00  -0.000000E+00  -0.000000E+00   2.341076E-39  -2.487560E-30  -2.044217E-20   7.500563E-11   2.851184E-03   7.615794E+00   2.394239E+01   5.122458E+01   1.308958E+02   2.018145E+02   1.514899E+02   1.058353E+02   7.481074E+01   4.027359E+01   1.184086E+01   3.357471E+00   5.535019E-07  -1.865225E-16   3.765946E-26  -3.023733E-36  -1.401298E-45   0.000000E+00  -0.000000E+00   0.000000E+00   0.000000E+00  -0.000000E+00   0.000000E+00   0.000000E+00   0.000000E+00   0.000000E+00   0.000000E+00   0.000000E+00  -0.000000E+00  -0.000000E+00  -0.000000E+00   0.000000E+00  -0.000000E+00   0.000000E+00  -0.000000E+00  -0.000000E+00   0.000000E+00  -0.000000E+00  -0.000000E+00   0.000000E+00  -0.000000E+00   0.000000E+00  -0.000000E+00  -0.000000E+00   0.000000E+00  -0.000000E+00  -0.000000E+00  -0.000000E+00   0.000000E+00  -0.000000E+00   0.000000E+00  -0.000000E+00   0.000000E+00  -0.000000E+00   0.000000E+00  -0.000000E+00   0.000000E+00
   0.000000E+00   0.000000E+00   0.000000E+00   0.000000E+00   0.000000E+00   0.000000E+00   0.000000E+00   0.000000E+00   0.000000E+00  -0.000000E+00  -0.000000E+00   0.000000E+00   0.000000E+00  -0.000000E+00   0.000000E+00   0.000000E+00   0.000000E+00   0.000000E+00  -0.000000E+00   0.000000E+00   0.000000E+00  -0.000000E+00   0.000000E+00   0.000000E+00  -0.000000E+00   0.000000E+00   0.000000E+00   0.000000E+00   0.000000E+00  -0.000000E+00   0.000000E+00  -0.000000E+00  -0.000000E+00   0.000000E+00  -0.000000E+00   0.000000E+00  -0.000000E+00  -0.000000E+00   0.000000E+00  -0.000000E+00   0.000000E+00  -0.000000E+00   0.000000E+00  -0.000000E+00   0.000000E+00  -0.000000E+00  -0.000000E+00  -0.000000E+00   0.000000E+00  -0.000000E+00  -0.000000E+00   0.000000E+00  -0.000000E+00   0.000000E+00   0.000000E+00   0.000000E+00  -0.000000E+00  -0.000000E+00  -0.000000E+00  -0.000000E+00   0.000000E+00  -0.000000E+00   0.000000E+00  -0.000000E+00  -0.000000E+00  -0.000000E+00  -0.000000E+00   0.000000E+00   0.000000E+00  -0.000000E+00  -0.000000E+00  -0.000000E+00   0.000000E+00   0.000000E+00  -0.000000E+00   0.000000E+00  -0.000000E+00  -0.000000E+00   3.316873E-42  -1.751163E-32   4.336334E-24   8.822430E-32   1.116555E-41   0.000000E+00   0.000000E+00   0.000000E+00   2.802597E-45   8.448246E-39  -1.457252E-40   3.724153E-31  -3.983828E-22  -3.304078E-12   1.827976E-01   1.456082E+01   3.978949E+01   7.071620E+01   1.932089E+02   2.181389E+02   1.877998E+02   1.375692E+02   8.738686E+01   5.076349E+01   1.882461E+01   4.383715E+00   1.912074E+00  -1.227433E-10   4.136100E-20  -8.350914E-30   6.705073E-40   0.000000E+00  -0.000000E+00   0.000000E+00  -0.000000E+00  -0.000000E+00  -0.000000E+00  -0.000000E+00  -0.000000E+00  -0.000000E+00  -0.000000E+00  -0.000000E+00  -0.000000E+00   0.000000E+00   0.000000E+00   0.000000E+00  -0.000000E+00   0.000000E+00  -0.000000E+00   0.000000E+00   0.000000E+00  -0.000000E+00   0.000000E+00   0.000000E+00  -0.000000E+00   0.000000E+00  -0.000000E+00   0.000000E+00   0.000000E+00  -0.000000E+00   0.000000E+00   0.000000E+00   0.000000E+00  -0.000000E+00   0.000000E+00  -0.000000E+00   0.000000E+00  -0.000000E+00   0.000000E+00  -0.000000E+00   0.000000E+00   0.000000E+00
   0.000000E+00  -0.000000E+00  -0.000000E+00   0.000000E+00   0.000000E+00   0.000000E+00  -0.000000E+00   0.000000E+00  -0.000000E+00   0.000000E+00   0.000000E+00  -0.000000E+00   0.000000E+00   0.000000E+00   0.000000E+00  -0.000000E+00   0.000000E+00  -0.000000E+00   0.000000E+00  -0.000000E+00   0.000000E+00   0.000000E+00   0.000000E+00  -0.000000E+00   0.000000E+00   0.000000E+00  -0.000000E+00   0.000000E+00   0.000000E+00  -0.000000E+00   0.000000E+00  -0.000000E+00  -0.000000E+00   0.000000E+00  -0.000000E+00   0.000000E+00  -0.000000E+00  -0.000000E+00   0.000000E+00  -0.000000E+00   0.000000E+00  -0.000000E+00   0.000000E+00  -0.000000E+00   0.000000E+00  -0.000000E+00  -0.000000E+00  -0.000000E+00   0.000000E+00  -0.000000E+00  -0.000000E+00   0.000000E+00  -0.000000E+00   0.000000E+00   0.000000E+00   0.000000E+00  -0.000000E+00  -0.000000E+00  -0.000000E+00  -0.000000E+00   0.000000E+00  -0.000000E+00   0.000000E+00  -0.000000E+00  -0.000000E+00  -0.000000E+00  -0.000000E+00   0.000000E+00   0.000000E+00  -0.000000E+00  -0.000000E+00  -0.000000E+00   0.000000E+00   0.000000E+00  -0.000000E+00   0.000000E+00  -0.000000E+00  -2.128012E-41   3.670260E-31  -1.937905E-21   4.798757E-13   9.763248E-21   1.235597E-30   2.415401E-39   1.141666E-40   5.745324E-44   3.121028E-34   9.349162E-28  -3.366888E-30  -1.889535E-22   7.147112E-14  -8.811119E-04   1.011791E+01   4.425982E+01   9.709513E+01   1.431986E+02   1.494400E+02   1.724332E+02   1.685600E+02   1.203032E+02   7.765593E+01   2.629239E+01   6.016199E+00   3.597297E+00  -1.054714E-04   1.817052E-13  -6.122951E-23   1.236243E-32  -9.921193E-43  -0.000000E+00   0.000000E+00  -0.000000E+00   0.000000E+00  -0.000000E+00  -0.000000E+00  -0.000000E+00  -0.000000E+00  -0.000000E+00  -0.000000E+00  -0.000000E+00  -0.000000E+00   0.000000E+00   0.000000E+00   0.000000E+00  -0.000000E+00   0.000000E+00  -0.000000E+00   1.154670E-42   0.000000E+00  -0.000000E+00   0.000000E+00   0.000000E+00  -0.000000E+00   0.000000E+00  -0.000000E+00   0.000000E+00   0.000000E+00  -0.000000E+00   0.000000E+00   0.000000E+00   0.000000E+00  -0.000000E+00   0.000000E+00  -0.000000E+00   0.000000E+00  -0.000000E+00   0.000000E+00  -0.000000E+00   0.000000E+00   0.000000E+00
   0.000000E+00   0.000000E+00   0.000000E+00   0.000000E+00   0.000000E+00   0.000000E+00   0.000000E+00  -0.000000E+00   0.000000E+00  -0.000000E+00  -0.000000E+00   0.000000E+00   0.000000E+00  -0.000000E+00   0.000000E+00   0.000000E+00   0.000000E+00   0.000000E+00  -0.000000E+00   0.000000E+00   0.000000E+00   0.000000E+00   0.000000E+00   0.000000E+00  -0.000000E+00  -0.000000E+00   0.000000E+00  -0.000000E+00  -0.000000E+00   0.000000E+00  -0.000000E+00   0.000000E+00   0.000000E+00  -0.000000E+00   0.000000E+00  -0.000000E+00   0.000000E+00   0.000000E+00  -0.000000E+00   0.000000E+00  -0.000000E+00   0.000000E+00  -0.000000E+00   0.000000E+00  -0.000000E+00   0.000000E+00   0.000000E+00   0.000000E+00  -0.000000E+00   0.000000E+00   0.000000E+00  -0.000000E+00   0.000000E+00  -0.000000E+00  -0.000000E+00  -0.000000E+00   0.000000E+00   0.000000E+00   0.000000E+00   0.000000E+00  -0.000000E+00   0.000000E+00  -0.000000E+00   0.000000E+00   0.000000E+00   0.000000E+00   0.000000E+00  -0.000000E+00  -0.000000E+00   0.000000E+00   0.000000E+00   0.000000E+00  -0.000000E+00  -0.000000E+00   0.000000E+00  -0.000000E+00   1.045621E-40   1.324768E-31  -2.284917E-21   1.206441E-11  -2.987462E-03  -6.078101E-11  -7.692195E-21  -1.503705E-29  -7.107409E-31  -3.557016E-34  -1.942993E-24  -5.820312E-18   2.103175E-20   9.452269E-13  -1.984567E-04   6.382399E+00   3.785427E+01   9.709370E+01   1.117470E+02   9.822638E+01   1.083164E+02   1.216619E+02   1.156725E+02   1.209288E+02   8.291646E+01   8.284629E+00   1.800153E+00   2.530366E+00  -6.926806E-08   1.193233E-16  -4.020857E-26   8.118234E-36  -0.000000E+00  -0.000000E+00   0.000000E+00  -0.000000E+00  -0.000000E+00   0.000000E+00   0.000000E+00   0.000000E+00   0.000000E+00   0.000000E+00   0.000000E+00   0.000000E+00   0.000000E+00  -0.000000E+00  -0.000000E+00  -0.000000E+00   0.000000E+00  -1.401298E-45   1.653868E-36  -7.192378E-33  -1.212081E-40   0.000000E+00  -0.000000E+00  -0.000000E+00   0.000000E+00  -0.000000E+00   0.000000E+00  -0.000000E+00  -0.000000E+00   0.000000E+00  -0.000000E+00  -0.000000E+00  -0.000000E+00   0.000000E+00  -0.000000E+00   0.000000E+00  -0.000000E+00   0.000000E+00  -0.000000E+00   0.000000E+00  -0.000000E+00  -0.000000E+00
   0.000000E+00   0.000000E+00   0.000000E+00   0.000000E+00   0.000000E+00   0.000000E+00   0.000000E+00  -0.000000E+00   0.000000E+00  -0.000000E+00  -0.000000E+00   0.000000E+00   0.000000E+00  -0.000000E+00   0.000000E+00   0.000000E+00   0.000000E+00   0.000000E+00  -0.000000E+00   0.000000E+00   0.000000E+00   0.000000E+00   0.000000E+00   0.000000E+00  -0.000000E+00   0.000000E+00  -0.000000E+00   0.000000E+00   0.000000E+00  -0.000000E+00   0.000000E+00  -0.000000E+00  -0.000000E+00   0.000000E+00  -0.000000E+00   0.000000E+00  -0.000000E+00  -0.000000E+00   0.000000E+00  -0.000000E+00   0.000000E+00  -0.000000E+00   0.000000E+00  -0.000000E+00   0.000000E+00  -0.000000E+00  -0.000000E+00  -0.000000E+00   0.000000E+00  -0.000000E+00  -0.000000E+00   0.000000E+00  -0.000000E+00   0.000000E+00   0.000000E+00   0.000000E+00  -0.000000E+00  -0.000000E+00  -0.000000E+00  -0.000000E+00   0.000000E+00  -0.000000E+00   0.000000E+00  -0.000000E+00  -0.000000E+00  -0.000000E+00  -0.000000E+00   0.000000E+00   0.000000E+00  -0.000000E+00  -0.000000E+00  -0.000000E+00   0.000000E+00   0.000000E+00   0.000000E+00  -0.000000E+00   1.787213E-37   2.264340E-28  -3.905460E-18   2.062092E-08   1.151421E+00   2.978636E-01  -1.353627E-10   1.323157E-19   2.619769E-21   1.311105E-24   7.161812E-15   2.145349E-08  -7.910046E-11   1.636419E-03   4.850111E+00   3.393771E+01   7.678108E+01   6.430008E+01   6.613432E+01   5.870084E+01   6.987612E+01   6.239322E+01   6.353619E+01   7.083070E+01   2.529025E+01   1.148464E+00   3.012338E+00  -2.071477E-03  -7.922444E-14   1.364745E-22  -4.598803E-32   9.285004E-42  -0.000000E+00  -0.000000E+00   0.000000E+00  -0.000000E+00   0.000000E+00  -0.000000E+00  -0.000000E+00  -0.000000E+00  -0.000000E+00  -0.000000E+00  -0.000000E+00  -0.000000E+00  -0.000000E+00   0.000000E+00   0.000000E+00   0.000000E+00  -1.401298E-45   4.333893E-36  -6.096108E-27   2.651088E-23   4.467683E-31  -1.193948E-40   0.000000E+00   0.000000E+00  -0.000000E+00   0.000000E+00  -0.000000E+00   0.000000E+00   0.000000E+00  -0.000000E+00   0.000000E+00   0.000000E+00   0.000000E+00  -0.000000E+00   0.000000E+00  -0.000000E+00   0.000000E+00  -0.000000E+00   0.000000E+00  -0.000000E+00   0.000000E+00   0.000000E+00