# RCH package for  MODFLOW-2005, generated by Flopy.
         3         0
         1        -1 # Stress period 1
INTERNAL               1  (75E15.6) -1 #rech_1                        
   1.000000E-03   8.186298E-38   1.000000E-03   7.993977E-37   2.233266E-36   7.373217E-36   1.000000E-03   4.290537E-34   4.065860E-33   5.020886E-33   1.269847E-33   4.206502E-33   1.000000E-03   6.815490E-32   1.000000E-03   7.873180E-31   1.000000E-03   7.218987E-30   1.000000E-03   2.175323E-29   2.943607E-28   8.116738E-29   1.000000E-03   5.421912E-29   1.000000E-03   8.535462E-29   2.910010E-28   1.000000E-03   1.561610E-26   1.000000E-03   3.228153E-26   8.291433E-26   1.000000E-03   9.994064E-25   6.919367E-25   1.000000E-03   1.235436E-24   1.000000E-03   6.435113E-24   4.211226E-24   5.746038E-23   1.000000E-03   5.068167E-22   1.000000E-03   3.691057E-21   1.000000E-03   4.724366E-21   1.000000E-03   4.548960E-20   7.271127E-20   1.000000E-03   1.000000E-03   1.000000E-03   1.000000E-03   1.000000E-03   5.849337E-23   3.368693E-23   1.000000E-03   1.000000E-03   3.136963E-25   3.774962E-24   1.000000E-03   1.000000E-03   1.000000E-03   1.000000E-03   1.000000E-03   8.580340E-27   1.000000E-03   3.256994E-26   3.665513E-26   1.125923E-25   3.812688E-27   1.000000E-03   7.025970E-28   1.249461E-29
   1.000000E-03   1.443743E-23   1.000000E-03   1.752031E-22   9.167997E-23   2.053454E-21   1.000000E-03   1.035939E-19   1.383371E-18   1.645952E-18   1.087497E-18   1.000000E-03   1.000000E-03   2.948641E-18   1.000000E-03   4.757289E-17   1.000000E-03   7.986511E-16   1.000000E-03   9.805544E-15   7.857235E-14   1.282248E-13   1.000000E-03   1.000000E-03   1.000000E-03   2.719183E-13   1.000000E-03   1.037876E-11   1.582750E-11   1.000000E-03   1.047896E-11   1.000000E-03   1.000000E-03   5.760340E-10   2.405658E-09   2.161400E-09   1.497298E-09   1.000000E-03   1.367878E-08   1.000000E-03   1.000000E-03   9.384820E-08   1.000000E-03   5.120644E-07   1.000000E-03   1.088977E-06   1.773861E-05   1.000000E-03   1.251793E-04   1.000000E-03   2.327474E-03   9.941714E-04   1.000000E-03   5.940582E-05   1.000000E-03   3.838777E-06   1.000000E-03   2.444239E-07   1.000000E-03   1.584072E-08   1.233610E-09   1.000000E-03   1.000000E-03   5.967648E-10   1.000000E-03   3.461562E-11   1.573011E-12   1.582503E-11   5.776117E-12   2.483436E-10   1.284955E-10   1.863449E-12   1.000000E-03   5.810164E-13   7.656806E-15
   3.564797E-24   1.000000E-03   1.800483E-22   1.000000E-03   1.000000E-03   1.000000E-03   9.348330E-20   1.000000E-03   1.000000E-03   1.000000E-03   1.000000E-03   1.895974E-17   2.584118E-17   1.000000E-03   5.205136E-17   1.000000E-03   7.853162E-16   1.000000E-03   1.075151E-14   1.000000E-03   1.000000E-03   1.000000E-03   1.220650E-13   9.859842E-13   1.587122E-12   1.000000E-03   8.675573E-12   1.000000E-03   1.000000E-03   2.837193E-11   1.000000E-03   2.402284E-10   3.117674E-09   1.000000E-03   1.000000E-03   1.000000E-03   1.000000E-03   1.925040E-08   1.000000E-03   2.448116E-07   2.680744E-07   1.000000E-03   1.470504E-06   1.000000E-03   1.684916E-05   1.000000E-03   5.840063E-05   1.000000E-03   2.249380E-03   3.386825E-03   3.537604E-03   9.321008E-04   1.000000E-03   5.456608E-05   1.000000E-03   3.522109E-06   1.000000E-03   2.245273E-07   1.000000E-03   1.180994E-08   1.000000E-03   4.845298E-08   8.437560E-09   1.000000E-03   5.233299E-10   1.000000E-03   1.000000E-03   1.000000E-03   1.000000E-03   1.000000E-03   1.000000E-03   1.000000E-03   2.429711E-12   1.000000E-03   1.000000E-03
   1.000000E-03   3.229634E-22   1.000000E-03   3.919269E-21   2.050868E-21   4.593548E-20   1.000000E-03   2.317382E-18   3.094582E-17   3.681971E-17   2.432716E-17   1.000000E-03   1.000000E-03   6.596071E-17   1.000000E-03   1.064200E-15   1.000000E-03   1.786572E-14   1.000000E-03   2.193488E-13   1.757652E-12   2.868373E-12   1.000000E-03   1.000000E-03   1.000000E-03   6.083186E-12   1.000000E-03   2.321775E-10   3.540351E-10   1.000000E-03   2.340610E-10   1.000000E-03   1.000000E-03   1.290553E-08   5.373900E-08   4.863668E-08   3.240565E-08   1.000000E-03   2.903481E-07   1.000000E-03   1.000000E-03   2.940730E-06   1.000000E-03   2.333934E-05   1.000000E-03   1.911355E-04   1.000000E-03   2.333695E-03   3.672685E-03   3.190035E-03   3.953767E-03   1.017785E-03   1.000000E-03   5.950296E-05   1.000000E-03   3.861588E-06   1.000000E-03   2.447543E-07   1.000000E-03   2.740636E-08   1.087710E-07   1.000000E-03   1.000000E-03   1.215527E-08   1.000000E-03   7.057650E-10   5.131429E-11   3.502749E-10   1.300546E-10   5.555227E-09   2.874466E-09   4.167690E-11   1.000000E-03   1.299473E-11   1.712817E-13
   9.686621E-23   1.000000E-03   4.892451E-21   1.000000E-03   1.000000E-03   1.000000E-03   2.540221E-18   1.000000E-03   1.000000E-03   1.000000E-03   1.000000E-03   5.151930E-16   7.021820E-16   1.000000E-03   1.414389E-15   1.000000E-03   2.133935E-14   1.000000E-03   2.921500E-13   1.000000E-03   1.000000E-03   1.000000E-03   3.316701E-12   2.679280E-11   4.312430E-11   1.000000E-03   2.357026E-10   1.000000E-03   1.000000E-03   7.731753E-10   1.000000E-03   6.560508E-09   8.459106E-08   1.000000E-03   1.000000E-03   1.000000E-03   1.000000E-03   6.234568E-07   1.000000E-03   8.089595E-06   1.858970E-06   4.994150E-06   1.000000E-03   1.624142E-04   1.000000E-03   4.683671E-03   5.324759E-03   3.124756E-03   3.660705E-03   3.467087E-03   3.937989E-03   9.999998E-04   1.000000E-03   5.838544E-05   1.000000E-03   3.684704E-06   1.000000E-03   2.405945E-07   6.469457E-08   1.000000E-03   1.000000E-03   1.294133E-06   2.347839E-07   1.000000E-03   1.454334E-08   1.000000E-03   1.000000E-03   1.000000E-03   1.000000E-03   1.000000E-03   1.000000E-03   1.000000E-03   6.602543E-11   1.000000E-03   1.000000E-03
   1.000000E-03   7.735656E-21   1.000000E-03   9.387478E-20   4.912263E-20   1.100252E-18   1.000000E-03   5.550620E-17   7.412178E-16   8.819098E-16   5.826868E-16   1.000000E-03   1.000000E-03   1.579895E-15   1.000000E-03   2.548978E-14   1.000000E-03   4.279211E-13   1.000000E-03   5.253855E-12   4.209953E-11   6.870342E-11   1.000000E-03   1.000000E-03   1.000000E-03   1.456631E-10   1.000000E-03   5.560512E-09   8.482320E-09   1.000000E-03   5.642212E-09   1.000000E-03   1.000000E-03   3.070983E-07   1.294853E-06   1.135674E-06   8.874518E-07   1.000000E-03   8.553346E-06   1.000000E-03   1.000000E-03   1.000000E-03   1.446692E-04   1.000000E-03   4.258193E-03   7.342159E-03   4.445347E-03   3.631267E-03   3.766576E-03   4.339677E-03   1.049535E-03   1.000000E-03   7.916491E-05   1.000000E-03   4.608297E-06   1.000000E-03   1.575119E-06   1.000000E-03   1.000000E-03   2.841840E-07   2.697719E-06   1.000000E-03   1.000000E-03   2.897845E-07   1.000000E-03   1.682648E-08   1.247447E-09   8.385579E-09   3.116044E-09   1.330592E-07   6.884959E-08   9.982406E-10   1.000000E-03   3.112482E-10   4.102559E-12
   2.091776E-21   1.000000E-03   1.056500E-19   1.000000E-03   1.000000E-03   1.000000E-03   5.485478E-17   1.000000E-03   1.000000E-03   1.000000E-03   1.000000E-03   1.112533E-14   1.516326E-14   1.000000E-03   3.054301E-14   1.000000E-03   4.608125E-13   1.000000E-03   6.308832E-12   1.000000E-03   1.000000E-03   1.000000E-03   7.162332E-11   5.785736E-10   9.312601E-10   1.000000E-03   5.090072E-09   1.000000E-03   1.000000E-03   1.668510E-08   1.000000E-03   1.415054E-07   1.827333E-06   1.000000E-03   1.000000E-03   1.000000E-03   1.000000E-03   1.295696E-05   1.000000E-03   1.677738E-04   7.295894E-05   1.000000E-03   1.000000E-03   2.825464E-03   4.317548E-03   3.677932E-03   4.021134E-03   3.820730E-03   4.291977E-03   4.229351E-03   9.946314E-04   1.000000E-03   5.182689E-05   1.000000E-03   5.822181E-06   1.000000E-03   1.000000E-03   1.000000E-03   2.712324E-06   1.000000E-03   1.000000E-03   2.792603E-05   5.074970E-06   1.000000E-03   3.143449E-07   1.000000E-03   1.000000E-03   1.000000E-03   1.000000E-03   1.000000E-03   1.000000E-03   1.000000E-03   1.425788E-09   1.000000E-03   1.000000E-03
   1.000000E-03   1.555956E-19   1.000000E-03   1.888205E-18   9.880541E-19   2.213056E-17   1.000000E-03   1.116457E-15   1.490891E-14   1.773881E-14   1.172019E-14   1.000000E-03   1.000000E-03   3.177946E-14   1.000000E-03   5.127248E-13   1.000000E-03   8.607580E-12   1.000000E-03   1.056818E-10   8.467722E-10   1.381989E-09   1.000000E-03   1.000000E-03   1.000000E-03   2.949064E-09   1.000000E-03   1.121320E-07   1.695052E-07   1.000000E-03   9.708450E-08   1.000000E-03   1.000000E-03   7.096908E-06   2.253644E-05   3.619958E-05   1.000000E-03   1.338892E-04   1.000000E-03   2.813951E-03   2.713987E-03   1.000000E-03   2.351902E-03   6.410663E-03   5.394638E-03   3.880513E-03   4.324198E-03   4.371329E-03   5.694202E-03   1.512261E-03   1.000000E-03   1.079432E-04   1.000000E-03   9.950095E-06   1.000000E-03   8.982119E-06   2.491943E-05   6.027477E-09   1.000000E-03   5.822723E-06   5.423566E-05   1.000000E-03   1.000000E-03   5.829138E-06   1.000000E-03   3.384715E-07   2.508598E-08   1.686694E-07   6.267609E-08   2.676364E-06   1.384846E-06   2.007869E-08   1.000000E-03   6.260473E-09   8.251920E-11
   3.998279E-20   1.000000E-03   2.019423E-18   1.000000E-03   1.000000E-03   1.000000E-03   1.048509E-15   1.000000E-03   1.000000E-03   1.000000E-03   1.000000E-03   2.126526E-13   2.898349E-13   1.000000E-03   5.838094E-13   1.000000E-03   8.808127E-12   1.000000E-03   1.205892E-10   1.000000E-03   1.000000E-03   1.000000E-03   1.369134E-09   1.105860E-08   1.780198E-08   1.000000E-03   9.731731E-08   1.000000E-03   1.000000E-03   3.175303E-07   1.000000E-03   2.684244E-06   3.500674E-05   1.000000E-03   1.000000E-03   1.000000E-03   1.000000E-03   1.848071E-04   1.000000E-03   2.260755E-03   4.991774E-03   4.601021E-03   4.346627E-03   4.112258E-03   4.112985E-03   4.289457E-03   4.424882E-03   6.167463E-03   1.680512E-03   1.000000E-03   1.652254E-04   1.000000E-03   1.480428E-05   1.000000E-03   4.783946E-05   1.000000E-03   1.000000E-03   1.082331E-07   5.151646E-05   1.000000E-03   1.000000E-03   5.418296E-04   9.838978E-05   1.000000E-03   6.087520E-06   1.000000E-03   1.000000E-03   1.000000E-03   1.000000E-03   1.000000E-03   1.000000E-03   1.000000E-03   2.725362E-08   1.000000E-03   1.000000E-03
   1.000000E-03   2.861793E-18   1.000000E-03   3.472882E-17   1.817282E-17   4.070364E-16   1.000000E-03   2.053443E-14   2.742123E-13   3.262611E-13   2.155638E-13   1.000000E-03   1.000000E-03   5.844901E-13   1.000000E-03   9.430072E-12   1.000000E-03   1.583114E-10   1.000000E-03   1.943698E-09   1.557448E-08   2.541738E-08   1.000000E-03   1.000000E-03   1.000000E-03   5.404105E-08   1.000000E-03   2.059398E-06   3.129163E-06   1.000000E-03   1.956307E-06   1.000000E-03   1.000000E-03   1.217099E-04   4.716085E-04   4.924599E-04   9.286584E-05   1.000000E-03   1.000000E-03   2.650286E-03   5.013464E-03   4.276687E-03   4.402642E-03   4.550534E-03   4.839910E-03   4.705225E-03   6.161609E-03   1.696252E-03   1.000000E-03   1.817034E-04   1.000000E-03   2.198739E-05   1.000000E-03   5.444112E-05   1.000000E-03   1.646663E-04   4.637637E-04   2.274596E-05   1.000000E-03   3.936913E-04   4.357796E-06   6.625771E-03   1.120638E-03   1.000000E-03   6.192441E-05   1.000000E-03   5.363432E-06   1.968781E-06   1.409235E-06   4.916867E-05   2.548271E-05   3.668084E-07   1.000000E-03   1.143765E-07   1.517735E-09
   7.134942E-19   1.000000E-03   3.603642E-17   1.000000E-03   1.000000E-03   1.000000E-03   1.871054E-14   1.000000E-03   1.000000E-03   1.000000E-03   1.000000E-03   3.794999E-12   5.171265E-12   1.000000E-03   1.040408E-11   1.000000E-03   1.569551E-10   1.000000E-03   2.148337E-09   1.000000E-03   1.000000E-03   1.000000E-03   2.357372E-08   2.006933E-07   3.046228E-07   1.000000E-03   1.540135E-06   1.000000E-03   1.000000E-03   1.695039E-05   1.000000E-03   2.148274E-04   9.968899E-06   2.524190E-03   5.426979E-03   5.328499E-03   3.334924E-03   1.000000E-03   3.359671E-03   5.700408E-03   4.498092E-03   4.655666E-03   4.698332E-03   4.807027E-03   4.819151E-03   5.034340E-03   2.650257E-03   3.319455E-04   1.000000E-03   1.000000E-03   1.000000E-03   1.000000E-03   3.676929E-05   1.000000E-03   2.419065E-04   4.302978E-03   5.518119E-03   1.278501E-03   3.258783E-04   3.982373E-03   7.236103E-03   4.606814E-03   2.549138E-04   1.000000E-03   2.243788E-05   1.000000E-03   1.000000E-03   1.000000E-03   1.000000E-03   1.000000E-03   1.000000E-03   1.000000E-03   4.855686E-07   1.000000E-03   1.000000E-03
   1.000000E-03   4.983584E-17   1.000000E-03   6.047798E-16   3.164051E-16   7.088410E-15   1.000000E-03   3.575925E-13   4.775116E-12   5.681618E-12   3.753416E-12   1.000000E-03   1.000000E-03   1.020743E-11   1.000000E-03   1.646905E-10   1.000000E-03   2.764427E-09   1.000000E-03   3.396675E-08   2.707449E-07   4.444630E-07   1.000000E-03   1.000000E-03   1.000000E-03   1.367594E-06   1.000000E-03   4.225277E-05   2.983751E-05   7.188071E-05   1.000000E-03   1.608485E-03   5.142097E-03   4.978639E-03   4.891434E-03   4.377804E-03   7.198852E-03   7.017303E-03   6.776022E-03   6.749042E-03   4.629897E-03   5.217998E-03   5.072880E-03   5.427635E-03   4.825282E-03   5.286581E-03   1.709607E-03   1.000000E-03   1.167012E-04   2.698782E-05   6.775367E-05   4.341017E-05   4.781596E-05   1.000000E-03   6.380292E-03   8.546545E-03   5.109532E-03   4.469379E-03   7.150721E-03   8.111971E-03   4.324906E-03   4.383268E-03   1.009298E-03   1.000000E-03   2.188579E-05   1.000000E-03   3.409911E-05   4.830156E-05   2.036619E-05   8.785174E-04   4.569668E-04   6.653482E-06   1.000000E-03   2.073675E-06   2.642987E-08
   1.217558E-17   1.000000E-03   6.149545E-16   1.000000E-03   1.000000E-03   1.000000E-03   3.192919E-13   1.000000E-03   1.000000E-03   1.000000E-03   1.000000E-03   6.475829E-11   8.825583E-11   1.000000E-03   1.777013E-10   1.000000E-03   2.680955E-09   1.000000E-03   3.670130E-08   1.000000E-03   1.000000E-03   1.000000E-03   4.119910E-07   3.386856E-06   5.345977E-06   1.000000E-03   2.850480E-05   1.000000E-03   1.000000E-03   1.616055E-04   1.000000E-03   1.725898E-03   5.230836E-03   5.132467E-03   5.104986E-03   5.232926E-03   4.867443E-03   4.679714E-03   4.971606E-03   4.355071E-03   7.129867E-03   6.785248E-03   5.011925E-03   5.122130E-03   4.854380E-03   4.244262E-03   9.569071E-04   1.000000E-03   1.000000E-03   1.000000E-03   1.000000E-03   1.000000E-03   1.000000E-03   4.953427E-03   5.244812E-03   4.473208E-03   4.802773E-03   4.808845E-03   3.903398E-03   6.904116E-03   5.102716E-03   4.132057E-03   4.708155E-03   4.812099E-04   1.000000E-03   3.496949E-05   1.000000E-03   1.000000E-03   1.000000E-03   6.596748E-03   4.434527E-03   8.422821E-05   1.000000E-03   2.584213E-05   1.000000E-03
   1.000000E-03   8.359893E-16   1.000000E-03   1.014503E-14   5.308446E-15   1.189045E-13   1.000000E-03   5.998541E-12   8.010287E-11   9.530782E-11   6.296908E-11   1.000000E-03   1.000000E-03   1.708442E-10   1.000000E-03   2.756393E-09   1.000000E-03   4.627278E-08   1.000000E-03   5.682144E-07   4.547962E-06   7.431447E-06   1.000000E-03   1.000000E-03   1.000000E-03   1.729373E-05   1.000000E-03   6.264849E-04   9.309367E-04   1.000000E-03   2.943407E-04   1.000000E-03   1.633828E-03   5.494539E-03   5.285826E-03   5.254065E-03   5.676897E-03   6.077443E-03   5.207812E-03   4.859852E-03   5.016219E-03   5.454583E-03   6.074779E-03   6.061990E-03   8.448414E-03   7.442495E-03   1.789271E-03   1.543155E-04   4.456302E-04   8.149510E-04   1.135720E-03   6.551672E-04   4.289945E-03   8.363306E-03   6.086851E-03   5.050937E-03   4.999125E-03   4.833183E-03   4.855209E-03   4.401981E-03   4.648474E-03   4.565978E-03   5.116231E-03   6.399579E-04   1.000000E-03   4.144417E-05   6.204318E-04   6.714172E-04   9.319385E-04   4.142592E-03   3.061054E-03   6.736848E-05   1.000000E-03   2.119574E-05   4.433610E-07
   2.012630E-16   1.000000E-03   1.016352E-14   1.000000E-03   1.000000E-03   1.000000E-03   5.276910E-12   1.000000E-03   1.000000E-03   1.000000E-03   1.000000E-03   1.071874E-09   1.453047E-09   1.000000E-03   2.841112E-09   1.000000E-03   4.276238E-08   1.000000E-03   5.820736E-07   1.000000E-03   1.000000E-03   1.000000E-03   9.133993E-07   7.900975E-05   1.000000E-03   2.892888E-04   1.000000E-03   3.550490E-03   7.169038E-03   1.000000E-03   1.000000E-03   3.164964E-04   1.000000E-03   2.060481E-03   6.297437E-03   5.078562E-03   7.086479E-03   9.963997E-03   7.417438E-03   5.344451E-03   5.384312E-03   6.956782E-03   7.871296E-03   8.277812E-03   1.473973E-02   1.332804E-02   5.583883E-03   4.320224E-03   4.102018E-03   6.275581E-03   7.427282E-03   7.728260E-03   6.096598E-03   5.151368E-03   5.330408E-03   5.292427E-03   5.086427E-03   4.986545E-03   4.841286E-03   4.813581E-03   4.962215E-03   4.712701E-03   5.177449E-03   1.912782E-04   1.000000E-03   1.000000E-03   4.349398E-03   4.894879E-03   7.071977E-03   7.599990E-03   3.853771E-06   1.000000E-03   2.041301E-05   1.000000E-03   1.000000E-03
   1.000000E-03   1.364245E-14   1.000000E-03   1.655501E-13   8.669752E-14   1.940165E-12   1.000000E-03   9.788767E-11   1.307276E-09   1.555273E-09   1.028115E-09   1.000000E-03   1.000000E-03   2.754440E-09   1.000000E-03   4.443376E-08   1.000000E-03   7.463754E-07   1.000000E-03   9.135199E-06   7.476426E-05   1.191448E-04   1.000000E-03   1.000000E-03   1.000000E-03   1.000000E-03   1.000000E-03   2.085820E-03   6.003433E-03   4.566064E-03   5.085809E-04   1.000000E-03   1.000000E-03   2.580899E-03   6.234482E-03   5.602385E-03   4.882335E-03   7.352158E-03   7.598393E-03   5.521475E-03   6.170883E-03   8.489812E-03   7.664451E-03   5.034692E-03   3.982758E-03   6.030017E-03   6.525068E-03   5.570645E-03   5.805625E-03   5.169449E-03   6.521292E-03   5.701023E-03   5.617610E-03   6.055722E-03   5.638801E-03   5.601207E-03   5.301537E-03   5.157304E-03   5.082192E-03   4.954900E-03   4.997959E-03   4.924894E-03   6.042904E-03   2.098919E-03   7.851784E-04   5.801023E-04   4.960842E-03   4.638336E-03   3.996263E-03   2.679668E-03   1.530047E-04   1.000000E-03   4.486515E-06   2.754175E-06   7.235485E-06
   3.247657E-15   1.000000E-03   1.640270E-13   1.000000E-03   1.000000E-03   1.000000E-03   8.516462E-11   1.000000E-03   1.000000E-03   1.000000E-03   1.000000E-03   1.727583E-08   2.353060E-08   1.000000E-03   4.722840E-08   1.000000E-03   7.123490E-07   1.000000E-03   9.745897E-06   1.000000E-03   1.000000E-03   1.000000E-03   1.008270E-04   1.052523E-03   1.128152E-03   4.684020E-04   2.784902E-03   7.293320E-03   4.819910E-03   7.922071E-03   6.750357E-03   3.308887E-04   1.217583E-04   2.573373E-03   7.082674E-03   6.113673E-03   6.584569E-03   5.674518E-03   5.948612E-03   5.449485E-03   8.276362E-03   7.718072E-03   5.736297E-03   6.296540E-03   6.052464E-03   1.218953E-02   8.693868E-03   6.268422E-03   6.443829E-03   5.897048E-03   7.441297E-03   7.747125E-03   8.057472E-03   6.400158E-03   5.745324E-03   5.673178E-03   5.209181E-03   5.043479E-03   5.189911E-03   5.001971E-03   6.035117E-03   5.141009E-03   7.725250E-03   9.019500E-03   5.387426E-03   5.025273E-03   7.642984E-03   4.747136E-03   4.745644E-03   1.084383E-03   1.000000E-03   1.178289E-06   1.000000E-03   1.000000E-03   1.000000E-03
   1.000000E-03   2.178235E-13   1.000000E-03   2.642109E-12   1.397809E-12   3.093314E-11   1.000000E-03   1.562524E-09   2.088892E-08   2.482285E-08   1.651851E-08   1.000000E-03   1.000000E-03   3.742663E-08   1.000000E-03   6.025188E-07   1.000000E-03   1.020907E-05   1.000000E-03   1.200564E-04   1.418656E-03   1.437789E-03   2.194441E-03   6.250222E-03   5.614929E-03   6.197023E-03   8.034740E-03   8.031036E-03   5.366024E-03   5.733634E-03   5.545215E-03   7.529067E-03   3.437219E-03   5.165501E-03   8.965638E-03   7.174715E-03   8.393100E-03   5.711619E-03   6.258277E-03   6.880778E-03   6.501708E-03   5.902822E-03   6.689421E-03   5.790278E-03   8.902227E-03   7.103038E-03   4.129181E-03   1.257219E-02   9.566628E-03   5.731929E-03   5.778440E-03   8.127627E-03   8.131010E-03   6.792087E-03   5.873539E-03   6.474509E-03   6.491617E-03   6.363775E-03   5.575923E-03   4.819714E-03   8.214824E-03   5.874745E-03   4.955926E-03   4.829860E-03   4.609849E-03   5.596120E-03   5.369104E-03   4.723847E-03   4.842232E-03   4.595933E-03   1.649466E-04   1.000000E-03   1.194736E-05   1.025597E-04   1.155863E-04
   5.141423E-14   1.000000E-03   2.570187E-12   1.000000E-03   1.000000E-03   1.000000E-03   1.332675E-09   1.000000E-03   1.000000E-03   1.000000E-03   1.000000E-03   2.955525E-07   2.818257E-07   1.940092E-07   1.000000E-03   3.198991E-06   1.000000E-03   4.878545E-05   1.000000E-03   1.086033E-03   7.068926E-03   8.355544E-03   5.189591E-03   5.792882E-03   5.987139E-03   6.845962E-03   8.089564E-03   4.887769E-03   6.101749E-03   6.025751E-03   6.216992E-03   5.940046E-03   5.945307E-03   8.757437E-03   9.475683E-03   6.167185E-03   5.685935E-03   6.244961E-03   5.941364E-03   8.377947E-03   8.187901E-03   6.078903E-03   6.429132E-03   7.379741E-03   6.841666E-03   5.915305E-03   6.922080E-03   8.822772E-03   7.551469E-03   5.568191E-03   6.449501E-03   6.276839E-03   5.686491E-03   7.143273E-03   6.648156E-03   9.330147E-03   9.108702E-03   8.863227E-03   6.010535E-03   5.231116E-03   5.135677E-03   5.341205E-03   5.674002E-03   5.264667E-03   4.732572E-03   8.851191E-03   8.540337E-03   5.117502E-03   5.292621E-03   1.000000E-03   1.000000E-03   1.883346E-05   1.000000E-03   1.000000E-03   1.000000E-03
   1.000000E-03   3.416792E-12   1.000000E-03   4.140864E-11   2.234145E-11   4.838485E-10   1.000000E-03   2.449730E-08   3.281608E-07   3.890793E-07   2.622691E-07   1.000000E-03   1.000000E-03   3.861437E-07   1.000000E-03   6.171869E-06   1.000000E-03   1.077632E-04   1.000000E-03   8.853118E-04   5.497855E-03   4.747107E-03   5.131603E-03   6.748581E-03   8.434909E-03   4.900176E-03   6.299456E-03   6.954201E-03   5.843677E-03   6.158768E-03   6.036633E-03   6.794363E-03   6.530478E-03   7.347369E-03   1.051099E-02   7.997453E-03   6.589245E-03   7.233032E-03   6.233319E-03   6.895825E-03   6.681718E-03   6.478268E-03   6.270891E-03   8.889616E-03   8.320294E-03   5.843597E-03   9.148492E-03   7.747822E-03   6.257446E-03   7.133742E-03   1.058939E-02   9.024038E-03   6.601859E-03   5.516916E-03   7.621393E-03   1.038803E-02   6.375439E-03   5.124398E-03   5.554902E-03   5.400634E-03   5.709118E-03   5.572561E-03   5.580952E-03   5.787787E-03   5.206624E-03   8.145681E-03   5.183757E-03   4.925501E-03   5.543696E-03   5.130183E-04   1.000000E-03   2.323176E-06   2.082037E-05   1.918083E-03   1.964026E-03
   8.012938E-13   1.000000E-03   4.029102E-11   1.000000E-03   1.000000E-03   1.000000E-03   2.090743E-08   1.000000E-03   1.000000E-03   1.000000E-03   1.000000E-03   4.411419E-06   5.193202E-06   1.000000E-03   1.528014E-06   1.000000E-03   1.238265E-05   1.000000E-03   1.000000E-03   2.373443E-03   5.885350E-03   5.504105E-03   5.652088E-03   5.370639E-03   5.984109E-03   6.561392E-03   7.128621E-03   8.914718E-03   5.713547E-03   6.506850E-03   5.760666E-03   8.755062E-03   9.875607E-03   5.685471E-03   5.990896E-03   6.226810E-03   8.885543E-03   8.431915E-03   5.731991E-03   8.912431E-03   8.421519E-03   6.199222E-03   6.499214E-03   7.041291E-03   7.037086E-03   6.497400E-03   6.945236E-03   7.019489E-03   6.352540E-03   9.186953E-03   9.929883E-03   9.885352E-03   7.554854E-03   6.353199E-03   6.665837E-03   9.040164E-03   6.806987E-03   5.531325E-03   5.677014E-03   5.559691E-03   5.660152E-03   5.693086E-03   5.848647E-03   5.898437E-03   5.794116E-03   5.292846E-03   5.445198E-03   5.213756E-03   5.743819E-03   1.000000E-03   1.000000E-03   9.077730E-05   1.000000E-03   9.415777E-03   9.668241E-03
   1.000000E-03   5.277787E-11   1.000000E-03   6.385128E-10   3.580395E-10   7.431121E-09   1.000000E-03   3.780095E-07   5.084425E-06   6.000821E-06   4.149578E-06   1.000000E-03   1.000000E-03   1.000000E-03   1.000000E-03   1.000000E-03   3.329296E-05   3.398432E-05   2.339767E-03   6.320339E-03   5.026620E-03   5.630564E-03   5.668294E-03   5.587017E-03   7.172987E-03   9.250485E-03   6.516879E-03   5.713955E-03   6.114968E-03   6.454243E-03   6.080893E-03   7.837485E-03   8.103779E-03   6.120794E-03   6.237267E-03   9.250874E-03   9.806244E-03   6.157479E-03   6.773501E-03   6.193139E-03   6.247533E-03   6.636666E-03   7.107440E-03   9.781281E-03   8.401747E-03   5.642138E-03   1.037803E-02   8.444677E-03   6.288690E-03   6.345033E-03   6.250978E-03   6.147307E-03   6.353477E-03   6.149015E-03   9.294900E-03   6.881126E-03   5.483625E-03   7.002288E-03   6.052915E-03   5.646606E-03   5.827777E-03   5.934975E-03   5.614384E-03   5.803962E-03   5.346602E-03   5.556058E-03   5.566689E-03   5.460839E-03   5.871970E-03   1.932084E-03   1.530414E-05   1.000000E-03   6.109221E-04   6.816454E-03   6.961879E-03
   1.232410E-11   1.000000E-03   6.191769E-10   1.000000E-03   1.000000E-03   1.000000E-03   3.212627E-07   1.000000E-03   1.000000E-03   1.000000E-03   1.000000E-03   6.827137E-05   7.813484E-05   3.339421E-06   1.000000E-03   6.236834E-05   1.000000E-03   5.427405E-04   4.891544E-03   5.854005E-03   6.716186E-03   5.570332E-03   5.764831E-03   5.965934E-03   5.528358E-03   7.107010E-03   8.857992E-03   6.387424E-03   7.634503E-03   6.272383E-03   6.498573E-03   6.849595E-03   7.994102E-03   7.256221E-03   5.967461E-03   7.664615E-03   1.140096E-02   9.403262E-03   6.138003E-03   6.806324E-03   6.743114E-03   6.163791E-03   9.112238E-03   8.029445E-03   6.195001E-03   6.449407E-03   8.681416E-03   8.732293E-03   6.731351E-03   7.612891E-03   7.265098E-03   6.675038E-03   7.584605E-03   6.990173E-03   5.792823E-03   6.414946E-03   5.804724E-03   8.618609E-03   6.617816E-03   5.667726E-03   6.104003E-03   6.016237E-03   7.144239E-03   5.955453E-03   6.919790E-03   5.666757E-03   5.693224E-03   5.744785E-03   5.941178E-03   6.838568E-03   3.537207E-04   6.267922E-04   4.000557E-03   4.585914E-03   4.556363E-03
   1.000000E-03   8.070654E-10   1.000000E-03   9.765140E-09   5.461433E-09   1.136797E-07   1.000000E-03   5.780834E-06   7.773344E-05   9.177261E-05   6.335072E-05   1.000000E-03   1.000000E-03   2.070916E-06   1.000000E-03   3.066250E-06   7.977137E-05   2.324975E-03   6.155400E-03   6.620747E-03   8.575435E-03   5.356503E-03   6.057167E-03   6.112528E-03   6.234769E-03   6.156197E-03   6.053942E-03   8.849524E-03   9.007270E-03   6.246844E-03   6.396060E-03   8.002046E-03   1.077069E-02   9.078426E-03   7.175049E-03   5.965183E-03   7.859408E-03   7.936513E-03   6.093395E-03   6.728739E-03   6.502272E-03   6.711742E-03   6.302978E-03   6.241105E-03   6.508457E-03   6.885293E-03   5.413414E-03   1.010533E-02   7.980862E-03   9.911677E-03   8.682953E-03   5.671303E-03   1.027383E-02   7.948224E-03   6.203090E-03   6.528126E-03   6.297498E-03   6.664008E-03   6.298617E-03   6.042272E-03   6.202667E-03   5.047340E-03   8.708121E-03   5.929162E-03   8.631500E-03   6.086230E-03   5.961296E-03   5.954232E-03   7.345362E-03   5.934373E-03   4.501379E-03   5.069640E-03   5.199302E-03   5.889052E-03   5.912598E-03
   1.873914E-10   1.000000E-03   9.483871E-09   1.000000E-03   1.000000E-03   1.000000E-03   4.925444E-06   1.000000E-03   1.000000E-03   1.000000E-03   1.000000E-03   1.200814E-03   1.357548E-03   1.000000E-03   1.943196E-04   1.000000E-03   2.940911E-04   6.174490E-03   8.568785E-03   4.953637E-03   5.142679E-03   6.036313E-03   5.701950E-03   5.447143E-03   6.432796E-03   5.876584E-03   8.683467E-03   1.012174E-02   5.535787E-03   6.892521E-03   6.587316E-03   6.570820E-03   5.370544E-03   8.766512E-03   9.719332E-03   5.927974E-03   7.387743E-03   8.101774E-03   7.276226E-03   6.510761E-03   6.611413E-03   6.634525E-03   6.542455E-03   7.667886E-03   7.285675E-03   6.321662E-03   7.420692E-03   9.494905E-03   7.295921E-03   8.265940E-03   7.916037E-03   6.134449E-03   1.034558E-02   7.754771E-03   6.072119E-03   6.755186E-03   5.416170E-03   1.032652E-02   7.247698E-03   5.953144E-03   5.859702E-03   8.662983E-03   5.978387E-03   5.606294E-03   5.429741E-03   5.774558E-03   6.160317E-03   6.190882E-03   7.505582E-03   7.034240E-03   9.279892E-03   7.681916E-03   5.785254E-03   9.594770E-03   9.708319E-03
   1.000000E-03   1.237940E-08   1.000000E-03   1.515451E-07   6.326417E-08   1.811380E-06   1.000000E-03   8.944271E-05   1.411315E-03   1.379143E-03   1.976941E-03   6.505084E-03   4.863348E-03   1.000000E-03   1.000000E-03   1.000000E-03   2.364842E-03   5.159275E-03   5.481996E-03   7.391051E-03   7.151919E-03   5.529007E-03   7.211573E-03   8.890753E-03   5.928621E-03   6.271942E-03   7.620379E-03   8.843598E-03   6.469430E-03   6.876586E-03   6.586402E-03   6.842316E-03   6.368068E-03   9.146344E-03   9.604461E-03   5.693247E-03   8.125017E-03   1.027882E-02   7.888876E-03   6.166558E-03   6.499057E-03   6.532629E-03   5.999130E-03   8.622951E-03   8.069506E-03   5.638054E-03   9.002149E-03   7.237244E-03   5.689517E-03   7.681185E-03   7.202396E-03   6.295753E-03   8.767520E-03   8.725740E-03   6.680016E-03   6.144154E-03   7.274360E-03   8.819047E-03   6.691742E-03   6.290863E-03   5.475244E-03   1.158405E-02   7.089260E-03   5.611900E-03   6.277058E-03   6.095020E-03   6.339180E-03   6.030651E-03   6.102499E-03   7.181001E-03   6.789489E-03   7.123578E-03   5.698609E-03   8.533385E-03   8.641743E-03