# HOB package for  MODFLOW-2005, generated by Flopy.
        26         0         0         7      -999
         1
Obs_0                   1        968        189          1                  0.0     0.0000     0.0000    62.5000   # DATASET 3 - Observation 1
Obs_1                   1       1452        223          1                  0.0     0.0000     0.0000    15.8000   # DATASET 3 - Observation 2
Obs_2                   1        753        269          1                  0.0     0.0000     0.0000     1.2000   # DATASET 3 - Observation 3
Obs_3                   1        781        283          1                  0.0     0.0000     0.0000     7.3000   # DATASET 3 - Observation 4
Obs_4                   1        818        287          1                  0.0     0.0000     0.0000     7.3000   # DATASET 3 - Observation 5
Obs_5                   1        827        298          1                  0.0     0.0000     0.0000    10.5000   # DATASET 3 - Observation 6
Obs_6                   1        837        303          1                  0.0     0.0000     0.0000     8.2000   # DATASET 3 - Observation 7
Obs_7                   1        879        315          1                  0.0     0.0000     0.0000    20.3000   # DATASET 3 - Observation 8
Obs_8                   1        838        319          1                  0.0     0.0000     0.0000    10.7000   # DATASET 3 - Observation 9
Obs_9                   1        860        319          1                  0.0     0.0000     0.0000    14.5500   # DATASET 3 - Observation 10
Obs_10                  1        671        328          1                  0.0     0.0000     0.0000     1.2000   # DATASET 3 - Observation 11
Obs_11                  1        744        362          1                  0.0     0.0000     0.0000     3.0000   # DATASET 3 - Observation 12
Obs_12                  1        915        565          1                  0.0     0.0000     0.0000     6.4000   # DATASET 3 - Observation 13
Obs_13                  1        910        567          1                  0.0     0.0000     0.0000     6.9000   # DATASET 3 - Observation 14
Obs_14                  1       1154        671          1                  0.0     0.0000     0.0000     2.7000   # DATASET 3 - Observation 15
Obs_15                  1       1127        754          1                  0.0     0.0000     0.0000     6.1000   # DATASET 3 - Observation 16
Obs_16                  1        917        800          1                  0.0     0.0000     0.0000     0.1000   # DATASET 3 - Observation 17
Obs_17                  1        347       1097          1                  0.0     0.0000     0.0000     8.1000   # DATASET 3 - Observation 18
Obs_18                  1        352       1112          1                  0.0     0.0000     0.0000     8.2000   # DATASET 3 - Observation 19
Obs_19                  1        668       1250          1                  0.0     0.0000     0.0000     5.1000   # DATASET 3 - Observation 20
Obs_20                  1        669       1258          1                  0.0     0.0000     0.0000     6.1000   # DATASET 3 - Observation 21
Obs_21                  1        682       1258          1                  0.0     0.0000     0.0000     5.5000   # DATASET 3 - Observation 22
Obs_22                  1        653       1268          1                  0.0     0.0000     0.0000     4.3000   # DATASET 3 - Observation 23
Obs_23                  1        661       1271          1                  0.0     0.0000     0.0000     5.5000   # DATASET 3 - Observation 24
Obs_24                  1        986       1450          1                  0.0     0.0000     0.0000     6.0000   # DATASET 3 - Observation 25
Obs_25                  1        977       1470          1                  0.0     0.0000     0.0000     7.3000   # DATASET 3 - Observation 26
