# DIS package for  MODFLOW-2005, generated by Flopy.
         1        75        75         1         4         2
  0
CONSTANT    1.000000E+02                           #delr                          
CONSTANT    1.000000E+02                           #delc                          
INTERNAL               1  (75E15.6) -1 #model_top                     
   0.000000E+00   0.000000E+00   0.000000E+00   0.000000E+00  -0.000000E+00  -0.000000E+00   0.000000E+00   0.000000E+00   0.000000E+00   0.000000E+00   0.000000E+00   0.000000E+00   0.000000E+00   0.000000E+00  -0.000000E+00   0.000000E+00   0.000000E+00   0.000000E+00   0.000000E+00   0.000000E+00  -0.000000E+00  -0.000000E+00   0.000000E+00  -0.000000E+00  -0.000000E+00  -0.000000E+00  -0.000000E+00   0.000000E+00   0.000000E+00  -0.000000E+00  -0.000000E+00  -0.000000E+00   0.000000E+00   0.000000E+00   0.000000E+00   0.000000E+00   0.000000E+00   0.000000E+00   0.000000E+00   0.000000E+00  -0.000000E+00   0.000000E+00  -0.000000E+00  -0.000000E+00   0.000000E+00   0.000000E+00   0.000000E+00   0.000000E+00  -0.000000E+00   0.000000E+00   4.896422E-28  -1.515480E-09   9.719019E-04   6.358936E-23   2.533548E-42   0.000000E+00  -0.000000E+00  -0.000000E+00  -0.000000E+00  -0.000000E+00  -0.000000E+00   0.000000E+00  -0.000000E+00  -0.000000E+00  -0.000000E+00   0.000000E+00   0.000000E+00   0.000000E+00   0.000000E+00   0.000000E+00  -0.000000E+00  -0.000000E+00  -0.000000E+00  -0.000000E+00   0.000000E+00
   0.000000E+00  -0.000000E+00   0.000000E+00  -0.000000E+00  -0.000000E+00   0.000000E+00   0.000000E+00   0.000000E+00   0.000000E+00   0.000000E+00   0.000000E+00  -0.000000E+00  -0.000000E+00   0.000000E+00   0.000000E+00   0.000000E+00   0.000000E+00  -0.000000E+00  -0.000000E+00   0.000000E+00  -0.000000E+00  -0.000000E+00  -0.000000E+00   0.000000E+00  -0.000000E+00  -0.000000E+00  -0.000000E+00   0.000000E+00   0.000000E+00  -0.000000E+00  -0.000000E+00  -0.000000E+00   0.000000E+00   0.000000E+00   0.000000E+00   0.000000E+00   0.000000E+00   0.000000E+00  -0.000000E+00  -0.000000E+00  -0.000000E+00   0.000000E+00  -0.000000E+00  -0.000000E+00   0.000000E+00   0.000000E+00   0.000000E+00   0.000000E+00  -1.880340E-30  -1.171843E-12   1.046043E-03   8.028568E+01  -9.502308E-04  -6.217136E-23  -2.477496E-42  -0.000000E+00   0.000000E+00   0.000000E+00   0.000000E+00   0.000000E+00   0.000000E+00  -0.000000E+00  -0.000000E+00  -0.000000E+00  -0.000000E+00   0.000000E+00   0.000000E+00   0.000000E+00   0.000000E+00  -0.000000E+00   0.000000E+00  -0.000000E+00  -0.000000E+00  -0.000000E+00   0.000000E+00
   0.000000E+00  -0.000000E+00   0.000000E+00  -0.000000E+00  -0.000000E+00   0.000000E+00   0.000000E+00   0.000000E+00   0.000000E+00   0.000000E+00  -0.000000E+00  -0.000000E+00  -0.000000E+00   0.000000E+00   0.000000E+00   0.000000E+00  -0.000000E+00  -0.000000E+00  -0.000000E+00   0.000000E+00  -0.000000E+00  -0.000000E+00  -0.000000E+00   0.000000E+00  -0.000000E+00  -0.000000E+00  -0.000000E+00   0.000000E+00   0.000000E+00  -0.000000E+00  -0.000000E+00  -0.000000E+00   0.000000E+00   0.000000E+00   0.000000E+00   0.000000E+00   0.000000E+00   0.000000E+00  -0.000000E+00  -0.000000E+00  -0.000000E+00   0.000000E+00  -0.000000E+00  -0.000000E+00   0.000000E+00   0.000000E+00   8.828180E-44   9.782298E-29  -6.005819E-11   3.536404E+00   7.613720E+01   1.496499E+02   1.939977E+00  -3.683279E-18  -1.467893E-37  -0.000000E+00   0.000000E+00   0.000000E+00   0.000000E+00   0.000000E+00  -0.000000E+00  -0.000000E+00  -0.000000E+00  -0.000000E+00  -0.000000E+00   0.000000E+00   0.000000E+00   0.000000E+00   0.000000E+00  -0.000000E+00   0.000000E+00  -0.000000E+00  -0.000000E+00  -0.000000E+00   0.000000E+00
   0.000000E+00   0.000000E+00   0.000000E+00   0.000000E+00   0.000000E+00  -0.000000E+00  -0.000000E+00   0.000000E+00   0.000000E+00   0.000000E+00   0.000000E+00   0.000000E+00   0.000000E+00  -0.000000E+00  -0.000000E+00  -0.000000E+00  -0.000000E+00  -0.000000E+00  -0.000000E+00   0.000000E+00  -0.000000E+00  -0.000000E+00  -0.000000E+00   0.000000E+00  -0.000000E+00  -0.000000E+00  -0.000000E+00   0.000000E+00   0.000000E+00  -0.000000E+00  -0.000000E+00  -0.000000E+00   0.000000E+00   0.000000E+00   0.000000E+00   0.000000E+00   0.000000E+00   0.000000E+00  -0.000000E+00  -0.000000E+00  -0.000000E+00   0.000000E+00  -0.000000E+00  -0.000000E+00   0.000000E+00   1.249958E-42   1.754078E-24  -8.173919E-10   1.913129E+01   1.179389E+02   1.498594E+02   4.497853E+01   3.383811E+00  -1.108625E-14  -4.418191E-34  -0.000000E+00   0.000000E+00   0.000000E+00   0.000000E+00   0.000000E+00  -0.000000E+00  -0.000000E+00  -0.000000E+00  -0.000000E+00  -0.000000E+00   0.000000E+00   0.000000E+00   0.000000E+00   0.000000E+00  -0.000000E+00   0.000000E+00  -0.000000E+00  -0.000000E+00  -0.000000E+00   0.000000E+00
   0.000000E+00   0.000000E+00   0.000000E+00   0.000000E+00   0.000000E+00  -0.000000E+00  -0.000000E+00   0.000000E+00   0.000000E+00   0.000000E+00   0.000000E+00   0.000000E+00   0.000000E+00  -0.000000E+00  -0.000000E+00  -0.000000E+00  -0.000000E+00  -0.000000E+00  -0.000000E+00   0.000000E+00  -0.000000E+00  -0.000000E+00  -0.000000E+00   0.000000E+00  -0.000000E+00  -0.000000E+00  -0.000000E+00   0.000000E+00   0.000000E+00  -0.000000E+00  -0.000000E+00  -0.000000E+00   0.000000E+00   0.000000E+00   0.000000E+00   0.000000E+00   0.000000E+00   0.000000E+00  -0.000000E+00  -8.407791E-45  -6.131261E-36   0.000000E+00  -0.000000E+00  -0.000000E+00   7.651090E-43   1.267349E-23   1.832316E-05   1.984732E+01   1.112722E+02   1.621702E+02   8.092810E+01   1.911478E+01   4.327511E-04   2.829440E-23   1.128045E-42   0.000000E+00  -0.000000E+00  -0.000000E+00   0.000000E+00   0.000000E+00  -0.000000E+00  -0.000000E+00  -0.000000E+00  -0.000000E+00  -0.000000E+00   0.000000E+00   0.000000E+00   0.000000E+00   0.000000E+00  -0.000000E+00   0.000000E+00  -0.000000E+00  -0.000000E+00  -0.000000E+00  -0.000000E+00
   0.000000E+00   0.000000E+00   0.000000E+00   0.000000E+00   0.000000E+00  -0.000000E+00  -0.000000E+00   0.000000E+00   0.000000E+00   0.000000E+00   0.000000E+00   0.000000E+00   0.000000E+00  -0.000000E+00   0.000000E+00   0.000000E+00   0.000000E+00   0.000000E+00   0.000000E+00  -0.000000E+00   0.000000E+00   0.000000E+00   0.000000E+00  -0.000000E+00   0.000000E+00   0.000000E+00   0.000000E+00  -0.000000E+00  -0.000000E+00   0.000000E+00   0.000000E+00   0.000000E+00  -0.000000E+00  -0.000000E+00  -0.000000E+00  -0.000000E+00  -0.000000E+00   0.000000E+00   2.802597E-45   9.990949E-26   7.502509E-17  -8.372092E-36   4.203895E-45   3.720428E-30   7.316304E-26   2.700042E-07   3.280686E+01   1.442218E+02   1.637682E+02   1.425450E+02   4.190632E+01   2.844830E+00  -8.039527E-11  -5.260083E-30  -0.000000E+00  -0.000000E+00   0.000000E+00   0.000000E+00  -0.000000E+00  -0.000000E+00   0.000000E+00   0.000000E+00   0.000000E+00   1.269857E-41   0.000000E+00  -0.000000E+00  -0.000000E+00  -0.000000E+00  -0.000000E+00   0.000000E+00  -0.000000E+00   0.000000E+00   0.000000E+00   0.000000E+00  -0.000000E+00
   0.000000E+00   0.000000E+00   0.000000E+00   0.000000E+00   0.000000E+00  -0.000000E+00  -0.000000E+00   0.000000E+00   0.000000E+00   0.000000E+00   0.000000E+00   0.000000E+00  -0.000000E+00  -0.000000E+00   0.000000E+00   0.000000E+00   0.000000E+00   0.000000E+00   0.000000E+00  -0.000000E+00   0.000000E+00   0.000000E+00   0.000000E+00  -0.000000E+00   0.000000E+00   0.000000E+00   0.000000E+00  -0.000000E+00  -0.000000E+00   0.000000E+00   0.000000E+00   0.000000E+00  -0.000000E+00  -0.000000E+00  -0.000000E+00  -0.000000E+00  -0.000000E+00   0.000000E+00   1.856938E-32   6.100943E-13   1.882953E+01   1.049927E-15   2.450915E-25   2.424144E-10   9.125141E-06   2.386331E+01   6.430722E+01   6.570245E+01   6.016645E+01   6.420540E+01   4.511271E+00   1.054142E+00   6.225753E-21   4.073364E-40   0.000000E+00   0.000000E+00   0.000000E+00   0.000000E+00  -0.000000E+00  -0.000000E+00   0.000000E+00   0.000000E+00   6.855871E-37   8.273737E-22   6.193951E-39  -0.000000E+00  -0.000000E+00  -0.000000E+00  -0.000000E+00   0.000000E+00  -0.000000E+00   0.000000E+00   0.000000E+00   0.000000E+00  -0.000000E+00
   0.000000E+00   0.000000E+00   0.000000E+00   0.000000E+00   0.000000E+00   0.000000E+00   0.000000E+00   0.000000E+00   0.000000E+00   0.000000E+00   0.000000E+00  -0.000000E+00  -0.000000E+00  -0.000000E+00   0.000000E+00   0.000000E+00   0.000000E+00   0.000000E+00   0.000000E+00  -0.000000E+00   0.000000E+00   0.000000E+00   0.000000E+00  -0.000000E+00   0.000000E+00   0.000000E+00   0.000000E+00  -0.000000E+00  -0.000000E+00   0.000000E+00   0.000000E+00   0.000000E+00  -0.000000E+00  -0.000000E+00  -5.594748E-38  -2.427982E-34  -1.498351E-38   0.000000E+00  -1.756770E-25  -5.771841E-06   4.596387E+01   8.077877E+00   5.904471E-06   5.636137E+01   3.220179E+01   5.875012E+01   1.620088E+01   1.430748E+01   4.314587E+00   3.105227E+00   2.438730E+00  -9.881789E-16  -3.837592E-34  -0.000000E+00  -0.000000E+00  -0.000000E+00   0.000000E+00   2.116737E-37  -5.745324E-44  -0.000000E+00   0.000000E+00   5.262431E-37   1.827143E-17   2.205015E-02   1.650736E-19  -2.895663E-39  -0.000000E+00  -0.000000E+00  -0.000000E+00   0.000000E+00  -0.000000E+00   0.000000E+00   0.000000E+00   0.000000E+00  -0.000000E+00
   0.000000E+00  -0.000000E+00   0.000000E+00  -0.000000E+00  -0.000000E+00   0.000000E+00   0.000000E+00   0.000000E+00   0.000000E+00  -0.000000E+00  -0.000000E+00  -0.000000E+00  -0.000000E+00  -0.000000E+00   0.000000E+00   0.000000E+00   0.000000E+00   0.000000E+00   0.000000E+00  -0.000000E+00   0.000000E+00   0.000000E+00   0.000000E+00  -0.000000E+00   0.000000E+00   0.000000E+00   0.000000E+00  -0.000000E+00  -0.000000E+00   0.000000E+00   0.000000E+00   0.000000E+00  -3.923636E-44  -2.048670E-38  -9.210714E-19  -3.997222E-15  -2.466757E-19   8.141913E-34  -5.333111E-18   1.269805E+01   7.173539E+01   6.439988E+01   8.592371E+01   8.257715E+01   1.626386E+02   8.857790E+01   3.588043E+01   1.607876E+00   1.171970E+00   1.553207E+00   1.093929E-09  -1.279996E-29  -0.000000E+00  -0.000000E+00   0.000000E+00  -4.344025E-43   1.994846E-29   3.484814E-18  -9.380201E-25  -7.541268E-32   7.269213E-36   2.702058E-19  -6.431360E-11   3.393760E+01   8.643714E-17  -1.516250E-36  -0.000000E+00  -0.000000E+00  -0.000000E+00   0.000000E+00  -0.000000E+00   0.000000E+00   0.000000E+00   0.000000E+00  -0.000000E+00
   0.000000E+00  -0.000000E+00   0.000000E+00   0.000000E+00  -0.000000E+00   0.000000E+00   0.000000E+00   0.000000E+00  -0.000000E+00  -0.000000E+00  -0.000000E+00  -0.000000E+00  -0.000000E+00  -0.000000E+00   0.000000E+00   0.000000E+00   0.000000E+00   0.000000E+00   0.000000E+00  -0.000000E+00   0.000000E+00   0.000000E+00   0.000000E+00  -0.000000E+00   0.000000E+00   0.000000E+00   0.000000E+00  -0.000000E+00  -0.000000E+00   0.000000E+00   0.000000E+00   7.785718E-36  -1.856623E-25   1.061026E-22   7.410150E-05   1.041985E+01   1.493031E+00   3.893586E-15   6.776155E-12   6.421376E-01   7.390723E+01   1.125134E+02   1.568770E+02   1.807537E+02   2.274544E+02   1.632266E+02   7.407083E+01   1.494330E+00   1.625239E+00  -1.587647E-18   1.215396E-29  -0.000000E+00  -0.000000E+00  -0.000000E+00   1.545317E-39  -2.074053E-24   9.539704E-11   5.516051E+00  -4.484123E-06  -3.606349E-13   3.468051E-17   6.502442E+00   1.406320E+01   2.841456E+01  -9.316419E-09   1.634253E-28   0.000000E+00   0.000000E+00  -0.000000E+00   0.000000E+00  -8.912258E-43   1.461168E-30   3.143603E-32   0.000000E+00  -0.000000E+00
   0.000000E+00  -0.000000E+00   0.000000E+00  -0.000000E+00  -0.000000E+00   0.000000E+00   0.000000E+00   0.000000E+00   0.000000E+00   0.000000E+00   0.000000E+00   0.000000E+00   0.000000E+00   0.000000E+00  -0.000000E+00  -0.000000E+00  -0.000000E+00  -0.000000E+00  -0.000000E+00   0.000000E+00  -0.000000E+00  -0.000000E+00  -0.000000E+00   0.000000E+00  -0.000000E+00  -0.000000E+00  -0.000000E+00   0.000000E+00   0.000000E+00  -0.000000E+00  -2.518848E-35  -4.438420E-16   1.058409E-05  -6.994640E-06   3.752077E+01   6.267823E+01   3.454907E+01   1.004076E+01   3.816440E+01   3.363366E+01   6.965090E+01   1.390065E+02   2.095170E+02   1.663068E+02   1.333689E+02   7.595350E+01   1.445533E+01   2.734354E+00   9.224929E-08   4.366642E-27   0.000000E+00   0.000000E+00   0.000000E+00   4.617604E-38  -8.809065E-20   1.482601E-04   3.775348E+01   7.262577E+01   5.222061E+01   2.247353E-02   3.646997E-01   5.557702E+01   6.781207E+01   4.876509E+01  -1.840915E-10   3.229268E-30   0.000000E+00   0.000000E+00   0.000000E+00  -1.570856E-42   5.080149E-23  -8.329711E-11  -1.792080E-12  -6.611324E-31   0.000000E+00
   0.000000E+00  -0.000000E+00   0.000000E+00  -0.000000E+00  -0.000000E+00   0.000000E+00   0.000000E+00   0.000000E+00   0.000000E+00   0.000000E+00   0.000000E+00   0.000000E+00   0.000000E+00   0.000000E+00  -0.000000E+00  -0.000000E+00  -0.000000E+00  -0.000000E+00  -0.000000E+00   0.000000E+00  -0.000000E+00  -0.000000E+00  -0.000000E+00   0.000000E+00  -0.000000E+00  -0.000000E+00  -0.000000E+00   3.551541E-39   1.401298E-45   0.000000E+00   2.594343E-36   4.571448E-17   1.831855E+01   4.491293E+01   6.941365E+01   9.503389E+01   6.504443E+01   6.115108E+01   7.590864E+01   9.749725E+01   1.058545E+02   1.857832E+02   1.577101E+02   8.590059E+01   6.080629E+01   1.299978E+01   2.127505E+00   2.729132E+00   1.499582E-10   7.098304E-30   1.401298E-45   0.000000E+00   6.641575E-38   2.021568E-18   2.022628E-02   1.785917E+01   7.299161E+01   1.215783E+02   5.918918E+01   5.196518E+01   8.859554E+01   1.081963E+02   1.051616E+02   3.288895E+01  -1.400328E-07   2.456405E-27   0.000000E+00   3.783506E-44   1.256524E-36   1.586618E-27  -5.129437E-08   3.929567E+01   3.940320E+00  -3.862139E-19   0.000000E+00
   0.000000E+00   0.000000E+00   0.000000E+00   0.000000E+00   0.000000E+00   0.000000E+00   0.000000E+00   0.000000E+00   0.000000E+00   0.000000E+00   0.000000E+00   0.000000E+00   0.000000E+00   0.000000E+00  -0.000000E+00  -0.000000E+00  -0.000000E+00  -0.000000E+00  -0.000000E+00   0.000000E+00  -2.802597E-45  -0.000000E+00  -0.000000E+00   0.000000E+00  -0.000000E+00  -0.000000E+00  -9.010324E-27   7.943040E-20   4.371202E-26   6.646198E-36  -1.038502E-41  -1.829876E-22  -1.519513E-03   5.124392E+01   9.611522E+01   1.298231E+02   1.005990E+02   6.830343E+01   1.245973E+02   2.401813E+02   2.110550E+02   2.515732E+02   1.447734E+02   7.722292E+01   3.278273E+01   6.659914E+00   2.416970E+00   3.069324E+00  -5.927962E-11  -7.382089E-24   1.586215E-26   4.590852E-27  -6.282671E-23  -2.583407E-08   3.142287E+01   7.410834E+01   1.136030E+02   1.617701E+02   9.323991E+01   9.801730E+01   1.492631E+02   1.610856E+02   8.941216E+01   3.893017E+01   7.776090E-09  -1.364054E-28   2.942727E-44   8.318019E-25   2.810223E-17  -3.308791E-15   2.191580E+00   5.870401E+01  -1.022785E-01   2.263830E-21   0.000000E+00
   0.000000E+00   0.000000E+00   0.000000E+00   0.000000E+00  -0.000000E+00   0.000000E+00   0.000000E+00   0.000000E+00   0.000000E+00   0.000000E+00   0.000000E+00   0.000000E+00   0.000000E+00   0.000000E+00  -0.000000E+00  -0.000000E+00  -0.000000E+00  -0.000000E+00  -0.000000E+00   7.006492E-45  -2.895651E-26  -5.605194E-45  -0.000000E+00  -0.000000E+00   0.000000E+00   1.208236E-34   2.552509E-15  -3.587627E-04   5.593540E-07   8.504702E-17   5.142097E-36  -1.855611E-39  -1.247114E-20  -1.267122E-02   6.901925E+01   1.353986E+02   1.352642E+02   9.827459E+01   1.233616E+02   2.446906E+02   2.103277E+02   1.486185E+02   9.999883E+01   7.718398E+01   4.938409E+01   6.198490E+00   3.153115E+00   2.863523E+00   1.714862E+00  -9.446371E-05   2.029775E-07   5.874611E-08  -8.055648E-04   1.597476E+01   7.107996E+01   1.193282E+02   1.426095E+02   1.870901E+02   1.670627E+02   1.500079E+02   2.069056E+02   1.817813E+02   8.511834E+01   4.916586E+01   1.497976E-02  -2.627696E-22   2.790095E-25   8.024338E-06   2.768650E+01   6.376433E+00   4.590495E+01   1.524688E+01   3.895047E-16   1.185544E-35   0.000000E+00
   0.000000E+00   0.000000E+00   0.000000E+00   0.000000E+00   0.000000E+00  -0.000000E+00  -0.000000E+00  -0.000000E+00  -0.000000E+00  -0.000000E+00  -0.000000E+00  -0.000000E+00  -0.000000E+00  -0.000000E+00   0.000000E+00   0.000000E+00   0.000000E+00   0.000000E+00   1.401298E-45  -2.373900E-26   8.962262E-08   1.933658E-26   0.000000E+00   0.000000E+00  -1.233143E-43  -2.925981E-40  -6.181322E-21  -7.036641E-02   5.884377E+01   3.146697E-01   2.094193E-20   7.857963E-40   1.026896E-31  -3.319891E-12   4.645428E+01   1.131492E+02   1.654742E+02   1.490497E+02   1.666289E+02   1.390184E+02   1.090983E+02   8.489571E+01   5.865405E+01   7.406976E+01   6.503235E+01   6.489744E+00   3.192575E+00   2.258599E+00   4.353151E+00   2.388854E+00   5.370095E-01   2.240361E+00   1.800787E+00   2.909819E+01   8.413092E+01   1.046834E+02   1.498432E+02   2.287046E+02   2.237531E+02   2.129270E+02   2.272983E+02   1.476051E+02   8.278374E+01   3.492049E+01   4.699829E-01   5.216384E-21   1.887122E-12   2.026142E+01   7.778561E+01   8.461278E+01   4.751400E+01  -2.757234E-07  -1.383216E-26  -0.000000E+00  -0.000000E+00
   0.000000E+00   0.000000E+00   0.000000E+00   0.000000E+00   0.000000E+00  -0.000000E+00  -0.000000E+00  -0.000000E+00  -0.000000E+00  -0.000000E+00   0.000000E+00  -0.000000E+00  -0.000000E+00  -0.000000E+00   0.000000E+00   0.000000E+00   0.000000E+00   0.000000E+00   3.600802E-38  -7.151872E-19   2.046489E-04  -2.819360E-18  -1.172676E-34   8.011318E-30  -2.018986E-23  -7.299616E-25   2.024385E-16  -1.618865E-02   8.406504E+01   6.035056E+01  -9.915520E-06   6.616905E-25  -7.614399E-29  -1.535058E-18   4.273313E+01   1.200036E+02   1.934974E+02   1.858509E+02   1.463665E+02   1.367779E+02   1.154325E+02   1.134689E+02   1.211486E+02   1.355206E+02   7.657914E+01   1.089258E+01   1.001398E+01   4.691762E+01   9.820443E+00   3.329374E+01   2.206566E+00   2.339482E+00   4.127251E+00   7.442632E+00   3.752074E+01   7.208827E+01   1.194268E+02   2.066634E+02   2.817861E+02   2.712065E+02   2.323768E+02   1.364771E+02   7.661483E+01   4.198757E+01   2.932373E+01  -7.094344E-02   3.013416E-03   2.138378E+01   8.762444E+01   1.056935E+02   3.366498E+01   1.096613E-12   5.500875E-32   0.000000E+00  -0.000000E+00
   0.000000E+00   0.000000E+00   0.000000E+00   0.000000E+00   0.000000E+00  -0.000000E+00  -0.000000E+00  -0.000000E+00  -0.000000E+00  -0.000000E+00   0.000000E+00  -0.000000E+00   0.000000E+00  -0.000000E+00   0.000000E+00   0.000000E+00   0.000000E+00   0.000000E+00   1.947805E-43  -3.855626E-24  -1.867019E-12   5.621308E-16  -3.566430E-15   2.438388E-10  -6.145147E-04  -2.221769E-05  -1.569297E-04   7.418202E+01   9.911605E+01   8.657671E+01   4.579038E+01  -1.057702E-07  -2.317579E-09  -5.864939E-13   5.850962E+01   1.206362E+02   2.002068E+02   2.140648E+02   2.117561E+02   1.431875E+02   1.406241E+02   1.665128E+02   1.856559E+02   1.194763E+02   4.746901E+01   2.260653E+01   6.480123E+01   8.237395E+01   1.803584E+01   4.083943E+01   2.064008E+01   2.969765E+00   5.102727E+00   1.042292E+01   2.736056E+01   6.329468E+01   1.124513E+02   1.659200E+02   2.209158E+02   2.910187E+02   2.548556E+02   1.745142E+02   1.136548E+02   8.701553E+01   5.439831E+01   7.545009E+00   5.687940E+00   4.627797E+01   1.316055E+02   6.505268E+01   1.646492E+01   7.588311E-11   3.806479E-30   0.000000E+00  -0.000000E+00
  -0.000000E+00   0.000000E+00   0.000000E+00   0.000000E+00   0.000000E+00  -0.000000E+00  -0.000000E+00  -0.000000E+00  -0.000000E+00  -0.000000E+00   0.000000E+00  -0.000000E+00   0.000000E+00  -0.000000E+00   0.000000E+00   0.000000E+00   0.000000E+00   4.217908E-43   3.565011E-24  -7.080785E-05   1.122450E+02   8.871341E+01   8.430267E+01   5.536203E+01   9.133398E+01   8.729433E+01   3.606955E+01   1.065546E+02   1.404024E+02   1.555352E+02   1.037522E+02   5.195553E+01   5.239215E+01   4.901144E+01   6.252501E+01   1.427883E+02   1.520129E+02   1.914746E+02   1.662144E+02   1.641536E+02   1.721079E+02   2.253487E+02   1.826476E+02   1.455264E+02   6.025890E+01   5.432562E+01   1.231692E+02   1.000719E+02   2.847152E+01   9.956229E+01   2.919096E+01   8.885953E+00   9.124508E+00   2.195378E+01   3.212436E+01   5.491908E+01   9.336532E+01   1.507418E+02   2.290773E+02   3.250020E+02   2.798214E+02   2.187219E+02   1.968263E+02   1.205901E+02   6.197659E+01   2.008186E+01   1.542084E+01   5.448504E+01   1.339309E+02   9.416777E+01   4.502370E+01  -3.869609E-10  -1.941089E-29  -0.000000E+00  -0.000000E+00
  -0.000000E+00   0.000000E+00   0.000000E+00   0.000000E+00   0.000000E+00  -0.000000E+00  -0.000000E+00  -0.000000E+00  -0.000000E+00  -0.000000E+00   0.000000E+00  -0.000000E+00   0.000000E+00   0.000000E+00  -0.000000E+00  -0.000000E+00  -0.000000E+00  -0.000000E+00  -8.343632E-31   1.656978E-11   8.888325E+01   1.451213E+02   1.447403E+02   9.466334E+01   7.418378E+01   1.195835E+02   6.951874E+01   1.268446E+02   1.906785E+02   1.744156E+02   1.864014E+02   1.331823E+02   1.007339E+02   1.523490E+02   1.266794E+02   1.098865E+02   1.585524E+02   1.861950E+02   1.737187E+02   1.869847E+02   2.126848E+02   2.205343E+02   2.114192E+02   1.770457E+02   7.048465E+01   1.005449E+02   1.737490E+02   1.191505E+02   5.267755E+01   1.234180E+02   5.411610E+01   2.845076E+01   2.088640E+01   5.966895E+01   3.959348E+01   6.522205E+01   8.870465E+01   1.306836E+02   2.099537E+02   2.877180E+02   2.846898E+02   2.807081E+02   1.916090E+02   1.234341E+02   5.381470E+01   3.534399E+01   4.048941E+01   8.182413E+01   1.521158E+02   7.780868E+01   2.014018E+01  -2.684174E-15  -1.346446E-34  -0.000000E+00  -0.000000E+00
  -0.000000E+00  -0.000000E+00  -0.000000E+00  -0.000000E+00  -0.000000E+00   0.000000E+00   0.000000E+00   0.000000E+00   0.000000E+00   0.000000E+00  -0.000000E+00   0.000000E+00  -0.000000E+00  -0.000000E+00   0.000000E+00   0.000000E+00   0.000000E+00   1.518224E-29   2.244323E-15   3.897647E-12   9.553663E+01   1.288503E+02   1.746553E+02   1.413214E+02   1.469804E+02   1.253403E+02   1.216175E+02   1.549041E+02   2.029575E+02   1.914299E+02   2.267169E+02   1.722260E+02   1.602731E+02   2.073308E+02   1.938510E+02   1.828565E+02   2.139783E+02   2.086467E+02   2.235788E+02   2.251508E+02   2.352222E+02   2.624609E+02   2.227715E+02   1.789536E+02   9.905283E+01   1.484106E+02   2.235374E+02   1.625203E+02   9.763179E+01   1.483198E+02   9.328168E+01   5.080858E+01   4.239655E+01   6.276030E+01   6.037774E+01   1.017351E+02   1.539385E+02   1.686512E+02   2.387713E+02   2.840843E+02   3.313172E+02   3.014626E+02   2.119509E+02   1.102314E+02   5.491616E+01   7.520939E+01   8.623952E+01   1.620296E+02   1.521237E+02   7.578191E+01   1.109220E+01  -4.396252E-16  -2.205266E-35   0.000000E+00   2.598848E-40
   0.000000E+00  -0.000000E+00  -0.000000E+00  -0.000000E+00  -0.000000E+00   0.000000E+00   0.000000E+00   0.000000E+00   0.000000E+00   0.000000E+00  -0.000000E+00   0.000000E+00  -0.000000E+00  -0.000000E+00  -0.000000E+00  -0.000000E+00  -5.441060E-40  -1.021438E-20  -1.078158E-03   4.697136E+01   1.056309E+02   1.697069E+02   1.661393E+02   1.840320E+02   1.684586E+02   1.591975E+02   1.556163E+02   1.586915E+02   2.347829E+02   2.192084E+02   2.416139E+02   2.207072E+02   1.794410E+02   2.212301E+02   2.452094E+02   2.100610E+02   2.377317E+02   2.270846E+02   2.343711E+02   2.556262E+02   2.909983E+02   2.955075E+02   2.508819E+02   2.116459E+02   1.313641E+02   1.942486E+02   2.229771E+02   1.795490E+02   1.682687E+02   1.705803E+02   1.114942E+02   9.514896E+01   8.266072E+01   7.367403E+01   1.030842E+02   1.240005E+02   2.136293E+02   2.459490E+02   2.709891E+02   3.224380E+02   3.566844E+02   3.111129E+02   2.233354E+02   1.138029E+02   1.017730E+02   1.184414E+02   1.560648E+02   2.157251E+02   1.715277E+02   7.434290E+01   1.006773E+01  -2.429247E-16   1.709213E-32   3.005603E-29   1.366581E-20
  -0.000000E+00  -0.000000E+00  -0.000000E+00  -0.000000E+00  -0.000000E+00   0.000000E+00   0.000000E+00   0.000000E+00   0.000000E+00   0.000000E+00  -0.000000E+00   0.000000E+00  -0.000000E+00  -0.000000E+00   0.000000E+00  -0.000000E+00  -3.141389E-40  -5.897269E-21  -7.492770E-02   8.253307E+01   1.535863E+02   1.919104E+02   1.721411E+02   2.346180E+02   2.007817E+02   2.125107E+02   1.674633E+02   1.835771E+02   2.386985E+02   2.484216E+02   2.383529E+02   2.351767E+02   2.086907E+02   2.492874E+02   2.872100E+02   2.571510E+02   2.410532E+02   2.593121E+02   2.579109E+02   2.992760E+02   3.167832E+02   2.620464E+02   2.450553E+02   2.161832E+02   2.162578E+02   2.285821E+02   2.480528E+02   2.430159E+02   2.134848E+02   2.058317E+02   1.800880E+02   1.763510E+02   1.466709E+02   9.823721E+01   1.684873E+02   2.146616E+02   2.717077E+02   3.089367E+02   3.434818E+02   3.739716E+02   3.295583E+02   2.730291E+02   2.603526E+02   2.440428E+02   2.149695E+02   2.030757E+02   2.377068E+02   2.500713E+02   1.478005E+02   7.381955E+01   1.806390E+01  -1.147894E-05   4.291864E-13   7.541746E-10   2.366304E-01
  -0.000000E+00  -0.000000E+00  -0.000000E+00  -0.000000E+00  -0.000000E+00   0.000000E+00   0.000000E+00   0.000000E+00   0.000000E+00   0.000000E+00  -0.000000E+00   1.463796E-40  -9.213644E-39  -2.383620E-39   0.000000E+00   0.000000E+00   4.088096E-36   7.674495E-17  -1.294223E-02   1.031887E+02   1.993396E+02   1.946547E+02   2.067593E+02   2.059928E+02   2.564655E+02   2.258093E+02   1.916564E+02   2.054144E+02   2.255311E+02   2.800266E+02   2.387395E+02   2.809920E+02   2.323766E+02   2.456261E+02   3.123531E+02   2.942148E+02   2.467782E+02   2.852195E+02   2.812984E+02   3.062252E+02   3.234523E+02   2.821495E+02   2.531011E+02   2.143693E+02   2.302241E+02   2.709770E+02   2.935184E+02   2.736682E+02   2.179177E+02   2.197506E+02   2.282610E+02   2.304226E+02   2.371747E+02   1.594718E+02   2.094639E+02   2.955422E+02   2.875128E+02   3.049238E+02   3.173395E+02   3.832964E+02   3.253678E+02   3.193617E+02   2.933764E+02   2.786750E+02   2.994921E+02   3.190099E+02   2.778397E+02   1.916554E+02   1.193906E+02   6.189791E+01   9.079881E+00   2.558288E+00   2.277285E+00   2.068174E+00   2.163470E+00
  -0.000000E+00  -0.000000E+00  -0.000000E+00  -0.000000E+00  -0.000000E+00   0.000000E+00   0.000000E+00   0.000000E+00   1.550555E-38   7.437022E-28  -5.938043E-31   3.769133E-22  -2.372421E-20  -6.137580E-21   3.014409E-39  -0.000000E+00  -1.069158E-26  -9.685273E-07   3.717034E+00   1.190604E+02   2.214010E+02   2.159535E+02   2.133247E+02   2.463595E+02   2.336781E+02   2.715448E+02   2.237952E+02   2.352881E+02   2.562222E+02   2.605237E+02   2.781263E+02   2.845702E+02   2.623188E+02   2.644009E+02   3.023725E+02   3.141629E+02   2.745171E+02   2.982496E+02   3.160642E+02   3.153730E+02   3.367726E+02   3.085209E+02   2.748372E+02   2.445737E+02   2.526429E+02   3.064622E+02   2.956621E+02   2.538196E+02   2.792563E+02   2.406656E+02   2.875306E+02   2.791391E+02   2.882813E+02   2.123820E+02   2.620304E+02   3.214019E+02   3.322856E+02   3.383673E+02   3.441865E+02   3.867841E+02   3.327635E+02   3.516940E+02   3.050432E+02   3.315788E+02   3.361123E+02   3.490887E+02   2.287104E+02   1.579396E+02   1.027881E+02   4.200402E+01   1.338667E+01   5.344759E+00   3.291806E+00   3.264719E+00   4.024220E+00
   0.000000E+00   0.000000E+00   0.000000E+00   0.000000E+00   0.000000E+00  -0.000000E+00  -0.000000E+00  -2.032936E-35  -2.027396E-18  -9.724123E-08   7.764164E-11   2.251601E-07   1.486647E+01   6.491256E-02  -3.885016E-19  -1.567336E-35   1.598153E-19   3.009934E+00   8.720287E+01   1.248204E+02   2.077470E+02   2.642819E+02   2.189735E+02   2.592270E+02   2.371701E+02   2.971187E+02   2.624528E+02   2.397122E+02   2.493863E+02   2.600869E+02   3.056522E+02   3.204293E+02   3.014852E+02   3.032153E+02   3.235946E+02   3.415400E+02   3.023189E+02   3.056974E+02   3.164963E+02   3.677788E+02   3.461397E+02   2.974977E+02   2.904381E+02   2.677852E+02   2.908798E+02   3.110753E+02   3.199926E+02   2.943660E+02   3.094245E+02   2.942185E+02   2.954958E+02   3.373988E+02   3.162562E+02   2.793493E+02   2.829081E+02   3.378749E+02   3.898658E+02   3.442040E+02   3.537504E+02   4.068894E+02   3.845174E+02   3.789077E+02   3.315390E+02   3.616633E+02   3.863567E+02   3.318986E+02   2.141074E+02   1.401636E+02   9.237387E+01   5.584655E+01   2.690634E+01   1.255503E+01   5.854929E+00   1.134159E+01   1.002713E+01
   0.000000E+00   0.000000E+00   0.000000E+00   0.000000E+00   0.000000E+00  -0.000000E+00  -2.084248E-35  -5.554683E-16   1.588813E-01   2.276625E+00   4.628060E+01   1.368607E-02   4.605213E+01   1.040504E+02  -8.496925E-14  -5.564867E-16   5.164656E-12   3.408950E+00   1.516557E+02   1.594112E+02   2.101962E+02   2.255645E+02   2.587285E+02   2.682193E+02   2.597512E+02   2.897080E+02   2.757662E+02   2.690482E+02   2.752852E+02   3.223196E+02   2.939216E+02   3.448870E+02   3.691913E+02   3.009618E+02   3.258480E+02   3.899059E+02   3.319744E+02   3.301454E+02   3.418793E+02   3.997625E+02   3.390320E+02   3.328159E+02   3.322981E+02   3.060917E+02   3.226199E+02   3.209968E+02   3.650768E+02   3.298477E+02   2.976549E+02   3.465114E+02   3.047205E+02   3.739323E+02   3.238156E+02   3.286842E+02   3.298944E+02   3.343735E+02   3.992832E+02   3.890471E+02   3.667194E+02   4.309241E+02   4.388970E+02   4.152878E+02   3.879038E+02   3.921084E+02   3.954008E+02   3.448553E+02   2.232357E+02   1.463080E+02   8.852298E+01   6.274556E+01   3.660645E+01   1.636685E+01   7.542438E+00   1.021869E+01   4.998018E+01